
     RDKit          3D

 51 53  0  0  0  0  0  0  0  0999 V2000
   -2.6246   -0.2433   -3.5533 C   0  0  0  0  0  0  0  0  0  0  0  0
   -1.5911   -0.2411   -2.3993 C   0  0  2  0  0  0  0  0  0  0  0  0
   -0.4557   -1.0786   -2.8605 C   0  0  0  0  0  0  0  0  0  0  0  0
    0.6261   -1.2133   -1.9400 N   0  0  0  0  0  0  0  0  0  0  0  0
    1.5271   -0.2020   -1.5386 C   0  0  0  0  0  0  0  0  0  0  0  0
    1.5523    1.0727   -2.0120 C   0  0  0  0  0  0  0  0  0  0  0  0
    2.4498    2.0454   -1.5708 C   0  0  0  0  0  0  0  0  0  0  0  0
    3.3664    1.7033   -0.6011 C   0  0  0  0  0  0  0  0  0  0  0  0
    3.3736    0.4286   -0.0992 C   0  0  0  0  0  0  0  0  0  0  0  0
    2.4773   -0.5095   -0.5523 C   0  0  0  0  0  0  0  0  0  0  0  0
    4.3649    0.1192    0.9268 C   0  0  0  0  0  0  0  0  0  0  0  0
    4.4208   -1.6330    1.6539 S   0  0  0  0  0  0  0  0  0  0  0  0
    5.7787   -1.2124    2.7339 C   0  0  0  0  0  0  0  0  0  0  0  0
    6.0195    0.1181    2.4409 C   0  0  0  0  0  0  0  0  0  0  0  0
    5.2302    0.6212    1.5247 N   0  0  0  0  0  0  0  0  0  0  0  0
    7.0850    0.8732    3.1234 C   0  0  0  0  0  0  0  0  0  0  0  0
    7.3177    2.0907    2.8679 O   0  0  0  0  0  0  0  0  0  0  0  0
    7.8886    0.2853    4.0830 O   0  0  0  0  0  0  0  0  0  0  0  0
   -2.3302   -0.7371   -1.2707 N   0  0  0  0  0  0  0  0  0  0  0  0
   -1.6637   -0.7659   -0.0261 C   0  0  0  0  0  0  0  0  0  0  0  0
   -2.6467   -1.2876    1.0320 C   0  0  1  0  0  0  0  0  0  0  0  0
   -3.7322   -0.2942    1.1844 C   0  0  0  0  0  0  0  0  0  0  0  0
   -4.8211   -0.2040    0.3472 C   0  0  0  0  0  0  0  0  0  0  0  0
   -5.8240    0.7396    0.5098 C   0  0  0  0  0  0  0  0  0  0  0  0
   -5.7692    1.6441    1.5386 C   0  0  0  0  0  0  0  0  0  0  0  0
   -4.6855    1.5784    2.3981 C   0  0  0  0  0  0  0  0  0  0  0  0
   -3.6939    0.6368    2.2278 C   0  0  0  0  0  0  0  0  0  0  0  0
   -4.6560    2.7569    3.7027 Cl  0  0  0  0  0  0  0  0  0  0  0  0
   -3.1097   -2.5522    0.7366 O   0  0  0  0  0  0  0  0  0  0  0  0
   -2.1834    0.0955   -4.4906 H   0  0  0  0  0  0  0  0  0  0  0  0
   -3.0198   -1.2699   -3.7128 H   0  0  0  0  0  0  0  0  0  0  0  0
   -3.4744    0.3817   -3.2294 H   0  0  0  0  0  0  0  0  0  0  0  0
   -1.2940    0.8020   -2.2551 H   0  0  0  0  0  0  0  0  0  0  0  0
   -0.8764   -2.0715   -3.1652 H   0  0  0  0  0  0  0  0  0  0  0  0
   -0.1038   -0.6297   -3.8329 H   0  0  0  0  0  0  0  0  0  0  0  0
    0.7663   -2.1870   -1.5248 H   0  0  0  0  0  0  0  0  0  0  0  0
    0.8703    1.3836   -2.7763 H   0  0  0  0  0  0  0  0  0  0  0  0
    2.4494    3.0512   -1.9619 H   0  0  0  0  0  0  0  0  0  0  0  0
    4.0834    2.4156   -0.2237 H   0  0  0  0  0  0  0  0  0  0  0  0
    2.5111   -1.5035   -0.1354 H   0  0  0  0  0  0  0  0  0  0  0  0
    6.2684   -1.8639    3.4334 H   0  0  0  0  0  0  0  0  0  0  0  0
    8.8171    0.6467    4.3358 H   0  0  0  0  0  0  0  0  0  0  0  0
   -2.9013   -1.5794   -1.4905 H   0  0  0  0  0  0  0  0  0  0  0  0
   -0.7548   -1.3559    0.0619 H   0  0  0  0  0  0  0  0  0  0  0  0
   -1.3960    0.3015    0.2258 H   0  0  0  0  0  0  0  0  0  0  0  0
   -2.1228   -1.3523    2.0238 H   0  0  0  0  0  0  0  0  0  0  0  0
   -4.9297   -0.8800   -0.4752 H   0  0  0  0  0  0  0  0  0  0  0  0
   -6.6651    0.7714   -0.1781 H   0  0  0  0  0  0  0  0  0  0  0  0
   -6.5659    2.3657    1.6372 H   0  0  0  0  0  0  0  0  0  0  0  0
   -2.8675    0.6252    2.9249 H   0  0  0  0  0  0  0  0  0  0  0  0
   -2.4852   -3.0919    0.2010 H   0  0  0  0  0  0  0  0  0  0  0  0
  1  2  1  0
  2  3  1  0
  3  4  1  0
  4  5  1  0
  5  6  2  0
  6  7  1  0
  7  8  2  0
  8  9  1  0
  9 10  2  0
  9 11  1  0
 11 12  1  0
 12 13  1  0
 13 14  2  0
 14 15  1  0
 14 16  1  0
 16 17  2  0
 16 18  1  0
  2 19  1  0
 19 20  1  0
 20 21  1  0
 21 22  1  0
 22 23  2  0
 23 24  1  0
 24 25  2  0
 25 26  1  0
 26 27  2  0
 26 28  1  0
 21 29  1  0
 10  5  1  0
 15 11  2  0
 27 22  1  0
  1 30  1  0
  1 31  1  0
  1 32  1  0
  2 33  1  1
  3 34  1  0
  3 35  1  0
  4 36  1  0
  6 37  1  0
  7 38  1  0
  8 39  1  0
 10 40  1  0
 13 41  1  0
 18 42  1  0
 19 43  1  0
 20 44  1  0
 20 45  1  0
 21 46  1  1
 23 47  1  0
 24 48  1  0
 25 49  1  0
 27 50  1  0
 29 51  1  0
M  END
>  <Ligand ID>  (1) 
LIG0002260

>  <Ligand>  (1) 
CHEMBL247315

>  <SMILES>  (1) 
C[C@H](CNc1cccc(c1)c1scc(n1)C(=O)O)NC[C@@H](c1cccc(c1)Cl)O

>  <CID>  (1) 
44441229.0

>  <ChEMBL ID>  (1) 
nan

>  <InChiKey>  (1) 
NWBXUUAZRNWGJE-YJYMSZOUSA-N

>  <InChi>  (1) 
InChI=1S/C21H22ClN3O3S/c1-13(23-11-19(26)14-4-2-6-16(22)8-14)10-24-17-7-3-5-15(9-17)20-25-18(12-29-20)21(27)28/h2-9,12-13,19,23-24,26H,10-11H2,1H3,(H,27,28)/t13-,19+/m1/s1

>  <IUPAC Name>  (1) 
2-[3-[[(2R)-2-[[(2R)-2-(3-chlorophenyl)-2-hydroxyethyl]amino]propyl]amino]phenyl]-1,3-thiazole-4-carboxylic acid

$$$$
