
     RDKit          3D

 41 42  0  0  0  0  0  0  0  0999 V2000
    0.7841   -3.2326    0.5152 O   0  0  0  0  0  0  0  0  0  0  0  0
    0.4618   -1.8918    0.7175 C   0  0  2  0  0  0  0  0  0  0  0  0
    0.3112   -1.2809   -0.6611 C   0  0  1  0  0  0  0  0  0  0  0  0
   -0.6736   -0.1192   -0.4958 C   0  0  0  0  0  0  0  0  0  0  0  0
   -1.8788   -0.6620   -0.0817 O   0  0  0  0  0  0  0  0  0  0  0  0
   -2.9582    0.6349    0.0970 P   0  0  0  0  0  0  0  0  0  0  0  0
   -2.3515    1.6985    1.0010 O   0  0  0  0  0  0  0  0  0  0  0  0
   -4.5070   -0.0126    0.7365 C   0  0  0  0  0  0  0  0  0  0  0  0
   -5.8959    1.0095    0.1766 P   0  0  0  0  0  0  0  0  0  0  0  0
   -5.3803    2.1081   -0.7200 O   0  0  0  0  0  0  0  0  0  0  0  0
   -6.9312    0.0241   -0.7228 O   0  0  0  0  0  0  0  0  0  0  0  0
   -6.6508    1.6579    1.5252 O   0  0  0  0  0  0  0  0  0  0  0  0
   -3.1359    1.3182   -1.4380 O   0  0  0  0  0  0  0  0  0  0  0  0
    1.5446   -0.8485   -1.0716 O   0  0  0  0  0  0  0  0  0  0  0  0
    2.4742   -1.1183   -0.0995 C   0  0  2  0  0  0  0  0  0  0  0  0
    1.6929   -1.1205    1.1836 C   0  0  2  0  0  0  0  0  0  0  0  0
    2.3303   -1.7557    2.2328 O   0  0  0  0  0  0  0  0  0  0  0  0
    3.5277   -0.1225   -0.1034 N   0  0  0  0  0  0  0  0  0  0  0  0
    3.8420    0.5999    0.9955 C   0  0  0  0  0  0  0  0  0  0  0  0
    4.8660    1.5468    0.9373 C   0  0  0  0  0  0  0  0  0  0  0  0
    5.3422    2.6589    2.6481 I   0  0  0  0  0  0  0  0  0  0  0  0
    5.5419    1.7284   -0.2481 C   0  0  0  0  0  0  0  0  0  0  0  0
    6.4690    2.5833   -0.3069 O   0  0  0  0  0  0  0  0  0  0  0  0
    5.1844    0.9809   -1.3064 N   0  0  0  0  0  0  0  0  0  0  0  0
    4.1963    0.0655   -1.2545 C   0  0  0  0  0  0  0  0  0  0  0  0
    3.9427   -0.5749   -2.2900 O   0  0  0  0  0  0  0  0  0  0  0  0
    0.3462   -3.5516   -0.3269 H   0  0  0  0  0  0  0  0  0  0  0  0
   -0.3960   -1.7448    1.3760 H   0  0  0  0  0  0  0  0  0  0  0  0
   -0.1260   -1.9919   -1.3886 H   0  0  0  0  0  0  0  0  0  0  0  0
   -0.3193    0.5763    0.2922 H   0  0  0  0  0  0  0  0  0  0  0  0
   -0.7644    0.4680   -1.4281 H   0  0  0  0  0  0  0  0  0  0  0  0
   -4.6089   -1.0651    0.4071 H   0  0  0  0  0  0  0  0  0  0  0  0
   -4.4483   -0.0422    1.8563 H   0  0  0  0  0  0  0  0  0  0  0  0
   -6.5639   -0.0099   -1.6472 H   0  0  0  0  0  0  0  0  0  0  0  0
   -6.8338    2.6143    1.4277 H   0  0  0  0  0  0  0  0  0  0  0  0
   -3.7572    0.8175   -2.0167 H   0  0  0  0  0  0  0  0  0  0  0  0
    2.9116   -2.1273   -0.2833 H   0  0  0  0  0  0  0  0  0  0  0  0
    1.3414   -0.1028    1.3948 H   0  0  0  0  0  0  0  0  0  0  0  0
    2.0649   -1.2911    3.0709 H   0  0  0  0  0  0  0  0  0  0  0  0
    3.2992    0.4429    1.9187 H   0  0  0  0  0  0  0  0  0  0  0  0
    5.7064    1.1326   -2.1923 H   0  0  0  0  0  0  0  0  0  0  0  0
  1  2  1  0
  2  3  1  0
  3  4  1  0
  4  5  1  0
  5  6  1  0
  6  7  2  0
  6  8  1  0
  8  9  1  0
  9 10  2  0
  9 11  1  0
  9 12  1  0
  6 13  1  0
  3 14  1  0
 14 15  1  0
 15 16  1  0
 16 17  1  0
 15 18  1  0
 18 19  1  0
 19 20  2  0
 20 21  1  0
 20 22  1  0
 22 23  2  0
 22 24  1  0
 24 25  1  0
 25 26  2  0
 16  2  1  0
 25 18  1  0
  1 27  1  0
  2 28  1  1
  3 29  1  6
  4 30  1  0
  4 31  1  0
  8 32  1  0
  8 33  1  0
 11 34  1  0
 12 35  1  0
 13 36  1  0
 15 37  1  6
 16 38  1  1
 17 39  1  0
 19 40  1  0
 24 41  1  0
M  END
>  <Ligand ID>  (1) 
LIG0005740

>  <Ligand>  (1) 
CHEMBL1085561

>  <SMILES>  (1) 
O[C@@H]1[C@@H](COP(=O)(CP(=O)(O)O)O)O[C@H]([C@@H]1O)n1cc(I)c(=O)[nH]c1=O

>  <CID>  (1) 
46890713.0

>  <ChEMBL ID>  (1) 
nan

>  <InChiKey>  (1) 
GQAKOOXLIIXQBC-JXOAFFINSA-N

>  <InChi>  (1) 
InChI=1S/C10H15IN2O11P2/c11-4-1-13(10(17)12-8(4)16)9-7(15)6(14)5(24-9)2-23-26(21,22)3-25(18,19)20/h1,5-7,9,14-15H,2-3H2,(H,21,22)(H,12,16,17)(H2,18,19,20)/t5-,6-,7-,9-/m1/s1

>  <IUPAC Name>  (1) 
[[(2R,3S,4R,5R)-3,4-dihydroxy-5-(5-iodo-2,4-dioxopyrimidin-1-yl)oxolan-2-yl]methoxy-hydroxyphosphoryl]methylphosphonic acid

$$$$
