
     RDKit          3D

 44 46  0  0  0  0  0  0  0  0999 V2000
    2.7077   -2.0168    2.7684 F   0  0  0  0  0  0  0  0  0  0  0  0
    3.2323   -1.1078    1.9265 C   0  0  0  0  0  0  0  0  0  0  0  0
    4.4840   -0.6005    2.2978 C   0  0  0  0  0  0  0  0  0  0  0  0
    5.1362    0.3218    1.5133 C   0  0  0  0  0  0  0  0  0  0  0  0
    4.5045    0.7182    0.3565 C   0  0  0  0  0  0  0  0  0  0  0  0
    3.2521    0.2117   -0.0156 C   0  0  0  0  0  0  0  0  0  0  0  0
    2.5896   -0.7228    0.7779 C   0  0  0  0  0  0  0  0  0  0  0  0
    1.3097   -1.1888    0.3800 N   0  0  0  0  0  0  0  0  0  0  0  0
    0.8681   -1.0748   -1.0007 C   0  0  0  0  0  0  0  0  0  0  0  0
   -0.4800   -0.4410   -1.1584 C   0  0  0  0  0  0  0  0  0  0  0  0
   -1.4893   -1.0209   -0.1848 C   0  0  0  0  0  0  0  0  0  0  0  0
   -0.9872   -1.0027    1.2140 C   0  0  0  0  0  0  0  0  0  0  0  0
    0.3403   -1.7813    1.2939 C   0  0  0  0  0  0  0  0  0  0  0  0
   -2.7409   -0.2293   -0.2488 C   0  0  0  0  0  0  0  0  0  0  0  0
   -3.9231   -0.8549   -0.6467 C   0  0  0  0  0  0  0  0  0  0  0  0
   -5.0709   -0.0969   -0.6976 C   0  0  0  0  0  0  0  0  0  0  0  0
   -5.0558    1.2591   -0.3614 C   0  0  0  0  0  0  0  0  0  0  0  0
   -3.8942    1.8842    0.0320 C   0  0  0  0  0  0  0  0  0  0  0  0
   -2.7424    1.1238    0.0832 C   0  0  0  0  0  0  0  0  0  0  0  0
   -6.2802    2.0523   -0.4195 C   0  0  0  0  0  0  0  0  0  0  0  0
   -6.2963    3.2919   -0.1183 O   0  0  0  0  0  0  0  0  0  0  0  0
   -7.4923    1.4838   -0.8094 O   0  0  0  0  0  0  0  0  0  0  0  0
    5.1535    1.6440   -0.4367 O   0  0  0  0  0  0  0  0  0  0  0  0
    6.0491    1.2648   -1.4726 C   0  0  0  0  0  0  0  0  0  0  0  0
    5.4449    0.4852   -2.4353 F   0  0  0  0  0  0  0  0  0  0  0  0
    6.5210    2.3853   -2.1191 F   0  0  0  0  0  0  0  0  0  0  0  0
    7.1338    0.5734   -0.9936 F   0  0  0  0  0  0  0  0  0  0  0  0
    4.9738   -0.9204    3.2135 H   0  0  0  0  0  0  0  0  0  0  0  0
    6.1009    0.7335    1.7684 H   0  0  0  0  0  0  0  0  0  0  0  0
    2.8642    0.6016   -0.9316 H   0  0  0  0  0  0  0  0  0  0  0  0
    0.7218   -2.1535   -1.3231 H   0  0  0  0  0  0  0  0  0  0  0  0
    1.5669   -0.6514   -1.6978 H   0  0  0  0  0  0  0  0  0  0  0  0
   -0.4040    0.6438   -1.1242 H   0  0  0  0  0  0  0  0  0  0  0  0
   -0.8472   -0.7358   -2.1656 H   0  0  0  0  0  0  0  0  0  0  0  0
   -1.7080   -2.0551   -0.4839 H   0  0  0  0  0  0  0  0  0  0  0  0
   -1.6779   -1.5898    1.8515 H   0  0  0  0  0  0  0  0  0  0  0  0
   -0.7652    0.0023    1.5984 H   0  0  0  0  0  0  0  0  0  0  0  0
    0.1153   -2.8281    0.9665 H   0  0  0  0  0  0  0  0  0  0  0  0
    0.6051   -1.7146    2.3511 H   0  0  0  0  0  0  0  0  0  0  0  0
   -3.9555   -1.9028   -0.9107 H   0  0  0  0  0  0  0  0  0  0  0  0
   -6.0017   -0.5860   -1.0099 H   0  0  0  0  0  0  0  0  0  0  0  0
   -3.8532    2.9376    0.2992 H   0  0  0  0  0  0  0  0  0  0  0  0
   -1.8374    1.6342    0.3954 H   0  0  0  0  0  0  0  0  0  0  0  0
   -8.1722    2.0234   -1.3180 H   0  0  0  0  0  0  0  0  0  0  0  0
  1  2  1  0
  2  3  2  0
  3  4  1  0
  4  5  2  0
  5  6  1  0
  6  7  2  0
  7  8  1  0
  8  9  1  0
  9 10  1  0
 10 11  1  0
 11 12  1  0
 12 13  1  0
 11 14  1  0
 14 15  2  0
 15 16  1  0
 16 17  2  0
 17 18  1  0
 18 19  2  0
 17 20  1  0
 20 21  2  0
 20 22  1  0
  5 23  1  0
 23 24  1  0
 24 25  1  0
 24 26  1  0
 24 27  1  0
  7  2  1  0
 13  8  1  0
 19 14  1  0
  3 28  1  0
  4 29  1  0
  6 30  1  0
  9 31  1  0
  9 32  1  0
 10 33  1  0
 10 34  1  0
 11 35  1  0
 12 36  1  0
 12 37  1  0
 13 38  1  0
 13 39  1  0
 15 40  1  0
 16 41  1  0
 18 42  1  0
 19 43  1  0
 22 44  1  0
M  END
>  <Ligand ID>  (1) 
LIG0003136

>  <Ligand>  (1) 
CHEMBL3964985

>  <SMILES>  (1) 
Fc1ccc(cc1N1CCC(CC1)c1ccc(cc1)C(=O)O)OC(F)(F)F

>  <CID>  (1) 
134150871.0

>  <ChEMBL ID>  (1) 
nan

>  <InChiKey>  (1) 
FVEGBGXNQWDPFY-UHFFFAOYSA-N

>  <InChi>  (1) 
InChI=1S/C19H17F4NO3/c20-16-6-5-15(27-19(21,22)23)11-17(16)24-9-7-13(8-10-24)12-1-3-14(4-2-12)18(25)26/h1-6,11,13H,7-10H2,(H,25,26)

>  <IUPAC Name>  (1) 
4-[1-[2-fluoro-5-(trifluoromethoxy)phenyl]piperidin-4-yl]benzoic acid

$$$$
