
     RDKit          3D

 57 61  0  0  0  0  0  0  0  0999 V2000
   -0.4894   -4.5161   -0.2926 C   0  0  0  0  0  0  0  0  0  0  0  0
   -1.8778   -4.1748   -0.2794 O   0  0  0  0  0  0  0  0  0  0  0  0
   -2.3065   -2.8618   -0.2235 C   0  0  0  0  0  0  0  0  0  0  0  0
   -1.3735   -1.8485   -0.1791 C   0  0  0  0  0  0  0  0  0  0  0  0
   -1.7855   -0.5360   -0.1230 C   0  0  0  0  0  0  0  0  0  0  0  0
   -3.1407   -0.2728   -0.1134 C   0  0  0  0  0  0  0  0  0  0  0  0
   -4.0681   -1.3054   -0.1587 C   0  0  0  0  0  0  0  0  0  0  0  0
   -3.6611   -2.6285   -0.2149 C   0  0  0  0  0  0  0  0  0  0  0  0
   -4.5383   -3.6770   -0.2607 O   0  0  0  0  0  0  0  0  0  0  0  0
   -5.9305   -3.5659   -0.2573 C   0  0  0  0  0  0  0  0  0  0  0  0
   -3.5019    1.0219   -0.0625 N   0  0  0  0  0  0  0  0  0  0  0  0
   -2.5628    2.0120   -0.0228 C   0  0  0  0  0  0  0  0  0  0  0  0
   -1.2668    1.7547   -0.0320 N   0  0  0  0  0  0  0  0  0  0  0  0
   -0.8499    0.4595   -0.0826 C   0  0  0  0  0  0  0  0  0  0  0  0
    0.5526    0.2581   -0.0747 N   0  0  0  0  0  0  0  0  0  0  0  0
    1.2781   -0.3955    0.9919 C   0  0  0  0  0  0  0  0  0  0  0  0
    2.3719   -1.2165    0.3290 C   0  0  0  0  0  0  0  0  0  0  0  0
    3.3222   -0.2256   -0.1751 N   0  0  0  0  0  0  0  0  0  0  0  0
    2.7720    0.8751   -0.9391 C   0  0  0  0  0  0  0  0  0  0  0  0
    1.3101    0.7369   -1.2051 C   0  0  0  0  0  0  0  0  0  0  0  0
    4.7199   -0.3171    0.0600 C   0  0  0  0  0  0  0  0  0  0  0  0
    5.5943    0.6504   -0.4398 C   0  0  0  0  0  0  0  0  0  0  0  0
    6.9598    0.5351   -0.1937 C   0  0  0  0  0  0  0  0  0  0  0  0
    7.4192   -0.5555    0.5532 C   0  0  0  0  0  0  0  0  0  0  0  0
    6.5185   -1.5072    1.0397 C   0  0  0  0  0  0  0  0  0  0  0  0
    5.2076   -1.3491    0.7735 N   0  0  0  0  0  0  0  0  0  0  0  0
   -3.0670    3.3965    0.0313 C   0  0  0  0  0  0  0  0  0  0  0  0
   -2.4667    4.3724   -0.9565 C   0  0  0  0  0  0  0  0  0  0  0  0
   -2.6775    5.4249    0.1361 C   0  0  0  0  0  0  0  0  0  0  0  0
   -2.5015    4.2722    1.1339 C   0  0  0  0  0  0  0  0  0  0  0  0
   -0.4093   -5.6152   -0.4057 H   0  0  0  0  0  0  0  0  0  0  0  0
   -0.1134   -4.2591    0.7138 H   0  0  0  0  0  0  0  0  0  0  0  0
    0.0238   -4.0017   -1.1128 H   0  0  0  0  0  0  0  0  0  0  0  0
   -0.3409   -2.0956   -0.1934 H   0  0  0  0  0  0  0  0  0  0  0  0
   -5.1118   -1.0823   -0.1503 H   0  0  0  0  0  0  0  0  0  0  0  0
   -6.4401   -4.4551    0.1559 H   0  0  0  0  0  0  0  0  0  0  0  0
   -6.3152   -3.3863   -1.2966 H   0  0  0  0  0  0  0  0  0  0  0  0
   -6.2424   -2.6994    0.3730 H   0  0  0  0  0  0  0  0  0  0  0  0
    0.6242   -0.9772    1.6533 H   0  0  0  0  0  0  0  0  0  0  0  0
    1.8301    0.3903    1.5814 H   0  0  0  0  0  0  0  0  0  0  0  0
    1.9817   -1.7177   -0.5799 H   0  0  0  0  0  0  0  0  0  0  0  0
    2.8641   -1.8974    1.0437 H   0  0  0  0  0  0  0  0  0  0  0  0
    3.0303    1.8068   -0.4027 H   0  0  0  0  0  0  0  0  0  0  0  0
    3.3084    0.8633   -1.9134 H   0  0  0  0  0  0  0  0  0  0  0  0
    1.1161    0.1058   -2.0981 H   0  0  0  0  0  0  0  0  0  0  0  0
    0.8983    1.7433   -1.4380 H   0  0  0  0  0  0  0  0  0  0  0  0
    5.1915    1.4874   -1.0193 H   0  0  0  0  0  0  0  0  0  0  0  0
    7.6553    1.2834   -0.5778 H   0  0  0  0  0  0  0  0  0  0  0  0
    8.4890   -0.6694    0.7609 H   0  0  0  0  0  0  0  0  0  0  0  0
    6.8815   -2.3637    1.6265 H   0  0  0  0  0  0  0  0  0  0  0  0
   -4.1679    3.4561    0.0327 H   0  0  0  0  0  0  0  0  0  0  0  0
   -1.3874    4.2502   -1.1368 H   0  0  0  0  0  0  0  0  0  0  0  0
   -3.0939    4.5857   -1.8363 H   0  0  0  0  0  0  0  0  0  0  0  0
   -1.9153    6.2012    0.1842 H   0  0  0  0  0  0  0  0  0  0  0  0
   -3.7402    5.7336    0.1160 H   0  0  0  0  0  0  0  0  0  0  0  0
   -3.1504    4.3824    2.0182 H   0  0  0  0  0  0  0  0  0  0  0  0
   -1.4267    4.1142    1.3259 H   0  0  0  0  0  0  0  0  0  0  0  0
  1  2  1  0
  2  3  1  0
  3  4  2  0
  4  5  1  0
  5  6  2  0
  6  7  1  0
  7  8  2  0
  8  9  1  0
  9 10  1  0
  6 11  1  0
 11 12  2  0
 12 13  1  0
 13 14  2  0
 14 15  1  0
 15 16  1  0
 16 17  1  0
 17 18  1  0
 18 19  1  0
 19 20  1  0
 18 21  1  0
 21 22  2  0
 22 23  1  0
 23 24  2  0
 24 25  1  0
 25 26  2  0
 12 27  1  0
 27 28  1  0
 28 29  1  0
 29 30  1  0
  8  3  1  0
 20 15  1  0
 26 21  1  0
 30 27  1  0
 14  5  1  0
  1 31  1  0
  1 32  1  0
  1 33  1  0
  4 34  1  0
  7 35  1  0
 10 36  1  0
 10 37  1  0
 10 38  1  0
 16 39  1  0
 16 40  1  0
 17 41  1  0
 17 42  1  0
 19 43  1  0
 19 44  1  0
 20 45  1  0
 20 46  1  0
 22 47  1  0
 23 48  1  0
 24 49  1  0
 25 50  1  0
 27 51  1  0
 28 52  1  0
 28 53  1  0
 29 54  1  0
 29 55  1  0
 30 56  1  0
 30 57  1  0
M  END
>  <Ligand ID>  (1) 
LIG0004755

>  <Ligand>  (1) 
CHEMBL1417160

>  <SMILES>  (1) 
COc1cc2c(cc1OC)nc(nc2N1CCN(CC1)c1ccccn1)C1CCC1

>  <CID>  (1) 
1230851.0

>  <ChEMBL ID>  (1) 
nan

>  <InChiKey>  (1) 
GPLGXZOMVXBMDO-UHFFFAOYSA-N

>  <InChi>  (1) 
InChI=1S/C23H27N5O2/c1-29-19-14-17-18(15-20(19)30-2)25-22(16-6-5-7-16)26-23(17)28-12-10-27(11-13-28)21-8-3-4-9-24-21/h3-4,8-9,14-16H,5-7,10-13H2,1-2H3

>  <IUPAC Name>  (1) 
2-cyclobutyl-6,7-dimethoxy-4-(4-pyridin-2-ylpiperazin-1-yl)quinazoline

$$$$
