
     RDKit          3D

 58 59  0  0  0  0  0  0  0  0999 V2000
    7.6688    1.6938    0.9000 C   0  0  0  0  0  0  0  0  0  0  0  0
    7.8106    0.2054    0.8878 C   0  0  0  0  0  0  0  0  0  0  0  0
    6.4447   -0.4379    0.9679 C   0  0  0  0  0  0  0  0  0  0  0  0
    5.5872   -0.0418   -0.1786 C   0  0  0  0  0  0  0  0  0  0  0  0
    6.1089    0.7466   -1.0211 O   0  0  0  0  0  0  0  0  0  0  0  0
    4.2267   -0.5444   -0.3058 C   0  0  0  0  0  0  0  0  0  0  0  0
    3.4955   -0.1391   -1.3844 C   0  0  0  0  0  0  0  0  0  0  0  0
    2.2026   -0.6068   -1.5200 C   0  0  0  0  0  0  0  0  0  0  0  0
    1.6064   -1.4638   -0.6222 C   0  0  0  0  0  0  0  0  0  0  0  0
    2.4085   -1.8472    0.4690 C   0  0  0  0  0  0  0  0  0  0  0  0
    3.6954   -1.3955    0.6242 C   0  0  0  0  0  0  0  0  0  0  0  0
    4.4128   -1.8256    1.7306 O   0  0  0  0  0  0  0  0  0  0  0  0
    1.8416   -2.7841    1.5044 C   0  0  0  0  0  0  0  0  0  0  0  0
    0.3642   -1.9690   -0.6714 O   0  0  0  0  0  0  0  0  0  0  0  0
   -0.7115   -1.8641   -1.5029 C   0  0  0  0  0  0  0  0  0  0  0  0
   -1.2286   -0.4502   -1.5538 C   0  0  0  0  0  0  0  0  0  0  0  0
   -2.4402   -0.3864   -2.4984 C   0  0  0  0  0  0  0  0  0  0  0  0
   -2.9064    1.0400   -2.5058 C   0  0  0  0  0  0  0  0  0  0  0  0
   -3.2927    1.5645   -1.2920 O   0  0  0  0  0  0  0  0  0  0  0  0
   -4.2928    1.2117   -0.4577 C   0  0  0  0  0  0  0  0  0  0  0  0
   -5.2224    0.2177   -0.6287 C   0  0  0  0  0  0  0  0  0  0  0  0
   -6.2157   -0.0685    0.2969 C   0  0  0  0  0  0  0  0  0  0  0  0
   -6.3043    0.6626    1.4591 C   0  0  0  0  0  0  0  0  0  0  0  0
   -5.3878    1.6698    1.6652 C   0  0  0  0  0  0  0  0  0  0  0  0
   -4.4084    1.9422    0.7390 C   0  0  0  0  0  0  0  0  0  0  0  0
   -3.5175    2.9707    1.0098 O   0  0  0  0  0  0  0  0  0  0  0  0
   -3.6575    3.6813    2.2109 C   0  0  0  0  0  0  0  0  0  0  0  0
   -7.1661   -1.1496    0.0311 C   0  0  0  0  0  0  0  0  0  0  0  0
   -7.0675   -1.8073   -1.0397 O   0  0  0  0  0  0  0  0  0  0  0  0
   -8.1559   -1.4321    0.9573 O   0  0  0  0  0  0  0  0  0  0  0  0
    8.3699    2.1138    1.6335 H   0  0  0  0  0  0  0  0  0  0  0  0
    6.6314    1.9618    1.2189 H   0  0  0  0  0  0  0  0  0  0  0  0
    7.8528    2.1232   -0.1215 H   0  0  0  0  0  0  0  0  0  0  0  0
    8.3653   -0.1349    1.7857 H   0  0  0  0  0  0  0  0  0  0  0  0
    8.4038   -0.1653    0.0232 H   0  0  0  0  0  0  0  0  0  0  0  0
    5.9782   -0.1041    1.9073 H   0  0  0  0  0  0  0  0  0  0  0  0
    6.6060   -1.5376    0.9869 H   0  0  0  0  0  0  0  0  0  0  0  0
    3.9336    0.5428   -2.1215 H   0  0  0  0  0  0  0  0  0  0  0  0
    1.6578   -0.2880   -2.3715 H   0  0  0  0  0  0  0  0  0  0  0  0
    4.1622   -1.5052    2.6663 H   0  0  0  0  0  0  0  0  0  0  0  0
    2.4338   -2.6795    2.4314 H   0  0  0  0  0  0  0  0  0  0  0  0
    1.9195   -3.8393    1.1735 H   0  0  0  0  0  0  0  0  0  0  0  0
    0.8016   -2.5012    1.7583 H   0  0  0  0  0  0  0  0  0  0  0  0
   -1.5838   -2.4963   -1.2066 H   0  0  0  0  0  0  0  0  0  0  0  0
   -0.5039   -2.1723   -2.5657 H   0  0  0  0  0  0  0  0  0  0  0  0
   -1.5182   -0.0785   -0.5410 H   0  0  0  0  0  0  0  0  0  0  0  0
   -0.5338    0.3021   -1.9497 H   0  0  0  0  0  0  0  0  0  0  0  0
   -1.9776   -0.5623   -3.5177 H   0  0  0  0  0  0  0  0  0  0  0  0
   -3.1783   -1.1332   -2.2640 H   0  0  0  0  0  0  0  0  0  0  0  0
   -3.7706    1.1769   -3.2290 H   0  0  0  0  0  0  0  0  0  0  0  0
   -2.1220    1.7172   -2.9704 H   0  0  0  0  0  0  0  0  0  0  0  0
   -5.2157   -0.3779   -1.5165 H   0  0  0  0  0  0  0  0  0  0  0  0
   -7.0921    0.4077    2.1535 H   0  0  0  0  0  0  0  0  0  0  0  0
   -5.4709    2.2417    2.5922 H   0  0  0  0  0  0  0  0  0  0  0  0
   -3.6386    3.0204    3.1069 H   0  0  0  0  0  0  0  0  0  0  0  0
   -2.8449    4.4457    2.2957 H   0  0  0  0  0  0  0  0  0  0  0  0
   -4.6481    4.1829    2.2134 H   0  0  0  0  0  0  0  0  0  0  0  0
   -8.9164   -2.0535    0.7150 H   0  0  0  0  0  0  0  0  0  0  0  0
  1  2  1  0
  2  3  1  0
  3  4  1  0
  4  5  2  0
  4  6  1  0
  6  7  2  0
  7  8  1  0
  8  9  2  0
  9 10  1  0
 10 11  2  0
 11 12  1  0
 10 13  1  0
  9 14  1  0
 14 15  1  0
 15 16  1  0
 16 17  1  0
 17 18  1  0
 18 19  1  0
 19 20  1  0
 20 21  2  0
 21 22  1  0
 22 23  2  0
 23 24  1  0
 24 25  2  0
 25 26  1  0
 26 27  1  0
 22 28  1  0
 28 29  2  0
 28 30  1  0
 11  6  1  0
 25 20  1  0
  1 31  1  0
  1 32  1  0
  1 33  1  0
  2 34  1  0
  2 35  1  0
  3 36  1  0
  3 37  1  0
  7 38  1  0
  8 39  1  0
 12 40  1  0
 13 41  1  0
 13 42  1  0
 13 43  1  0
 15 44  1  0
 15 45  1  0
 16 46  1  0
 16 47  1  0
 17 48  1  0
 17 49  1  0
 18 50  1  0
 18 51  1  0
 21 52  1  0
 23 53  1  0
 24 54  1  0
 27 55  1  0
 27 56  1  0
 27 57  1  0
 30 58  1  0
M  END
>  <Ligand ID>  (1) 
LIG0004135

>  <Ligand>  (1) 
CHEMBL3287719

>  <SMILES>  (1) 
CCCC(=O)c1ccc(c(c1O)C)OCCCCOc1cc(ccc1OC)C(=O)O

>  <CID>  (1) 
90643884.0

>  <ChEMBL ID>  (1) 
nan

>  <InChiKey>  (1) 
CYOPXIQIQFTMBB-UHFFFAOYSA-N

>  <InChi>  (1) 
InChI=1S/C23H28O7/c1-4-7-18(24)17-9-11-19(15(2)22(17)25)29-12-5-6-13-30-21-14-16(23(26)27)8-10-20(21)28-3/h8-11,14,25H,4-7,12-13H2,1-3H3,(H,26,27)

>  <IUPAC Name>  (1) 
3-[4-(4-butanoyl-3-hydroxy-2-methylphenoxy)butoxy]-4-methoxybenzoic acid

$$$$
