
     RDKit          3D

158163  0  0  0  0  0  0  0  0999 V2000
   12.8798   -0.8075   -0.0620 C   0  0  0  0  0  0  0  0  0  0  0  0
   11.4764   -0.9314   -0.6032 C   0  0  0  0  0  0  0  0  0  0  0  0
   10.7061    0.3450   -0.3278 C   0  0  0  0  0  0  0  0  0  0  0  0
    9.2780    0.2673   -0.8549 C   0  0  0  0  0  0  0  0  0  0  0  0
    8.5208   -0.8568   -0.2053 C   0  0  2  0  0  0  0  0  0  0  0  0
    7.1123   -0.9368   -0.7296 C   0  0  0  0  0  0  0  0  0  0  0  0
    6.9104   -1.0167   -1.9473 O   0  0  0  0  0  0  0  0  0  0  0  0
    6.0410   -0.9218    0.2025 N   0  0  0  0  0  0  0  0  0  0  0  0
    4.6681   -1.0077   -0.3996 C   0  0  1  0  0  0  0  0  0  0  0  0
    4.2308   -2.4312   -0.1279 C   0  0  0  0  0  0  0  0  0  0  0  0
    2.8612   -2.7914   -0.4828 C   0  0  0  0  0  0  0  0  0  0  0  0
    1.9994   -2.0849   -1.0162 O   0  0  0  0  0  0  0  0  0  0  0  0
    2.4483   -4.1194   -0.1773 N   0  0  0  0  0  0  0  0  0  0  0  0
    1.0755   -4.6129   -0.4557 C   0  0  0  0  0  0  0  0  0  0  0  0
    0.9567   -6.0183   -0.0315 C   0  0  0  0  0  0  0  0  0  0  0  0
   -0.3092   -6.7540   -0.2251 C   0  0  0  0  0  0  0  0  0  0  0  0
   -1.5064   -6.2251    0.4435 C   0  0  0  0  0  0  0  0  0  0  0  0
   -2.2229   -5.0427   -0.0789 C   0  0  2  0  0  0  0  0  0  0  0  0
   -3.2701   -4.6568    0.9159 N   0  0  0  0  0  0  0  0  0  0  0  0
   -3.5597   -3.2779    1.1501 C   0  0  0  0  0  0  0  0  0  0  0  0
   -2.9506   -2.5253    0.3218 O   0  0  0  0  0  0  0  0  0  0  0  0
   -4.3966   -2.6816    2.1341 C   0  0  1  0  0  0  0  0  0  0  0  0
   -4.4414   -1.1761    1.9496 N   0  0  0  0  0  0  0  0  0  0  0  0
   -4.9975   -0.6360    0.7644 C   0  0  0  0  0  0  0  0  0  0  0  0
   -5.3719   -1.5867    0.0024 O   0  0  0  0  0  0  0  0  0  0  0  0
   -5.1875    0.7060    0.3365 C   0  0  1  0  0  0  0  0  0  0  0  0
   -4.2300    1.7521    0.5947 N   0  0  0  0  0  0  0  0  0  0  0  0
   -2.9152    1.6553    0.0822 C   0  0  0  0  0  0  0  0  0  0  0  0
   -2.7021    0.4748   -0.3217 O   0  0  0  0  0  0  0  0  0  0  0  0
   -1.8248    2.6070   -0.0415 C   0  0  2  0  0  0  0  0  0  0  0  0
   -0.5591    2.2714    0.5474 N   0  0  0  0  0  0  0  0  0  0  0  0
    0.5543    1.6988   -0.1459 C   0  0  0  0  0  0  0  0  0  0  0  0
    0.2896    1.2636   -1.2538 O   0  0  0  0  0  0  0  0  0  0  0  0
    1.9369    1.6285    0.4576 C   0  0  1  0  0  0  0  0  0  0  0  0
    2.7630    0.7145   -0.2910 N   0  0  0  0  0  0  0  0  0  0  0  0
    3.8545   -0.0228    0.3193 C   0  0  0  0  0  0  0  0  0  0  0  0
    4.0422    0.2720    1.5096 O   0  0  0  0  0  0  0  0  0  0  0  0
    2.5848    3.0104    0.2040 C   0  0  0  0  0  0  0  0  0  0  0  0
    3.9434    3.0786    0.7382 C   0  0  0  0  0  0  0  0  0  0  0  0
    4.2498    3.4589    2.0059 N   0  0  0  0  0  0  0  0  0  0  0  0
    5.5866    3.4545    2.1753 C   0  0  0  0  0  0  0  0  0  0  0  0
    6.1166    3.0670    0.9990 N   0  0  0  0  0  0  0  0  0  0  0  0
    5.1518    2.8316    0.1090 C   0  0  0  0  0  0  0  0  0  0  0  0
   -0.3723    2.4332    1.9363 C   0  0  0  0  0  0  0  0  0  0  0  0
   -2.1469    4.0266   -0.2019 C   0  0  0  0  0  0  0  0  0  0  0  0
   -0.9878    4.9722   -0.3611 C   0  0  0  0  0  0  0  0  0  0  0  0
   -0.4011    5.5541    0.7467 C   0  0  0  0  0  0  0  0  0  0  0  0
    0.6507    6.4395    0.6773 C   0  0  0  0  0  0  0  0  0  0  0  0
    1.1363    6.7555   -0.5647 C   0  0  0  0  0  0  0  0  0  0  0  0
    0.5671    6.1884   -1.6698 C   0  0  0  0  0  0  0  0  0  0  0  0
   -0.4848    5.3019   -1.6084 C   0  0  0  0  0  0  0  0  0  0  0  0
    1.0812    6.5358   -2.9075 C   0  0  0  0  0  0  0  0  0  0  0  0
    2.1288    7.4226   -3.0035 C   0  0  0  0  0  0  0  0  0  0  0  0
    2.6935    7.9881   -1.8587 C   0  0  0  0  0  0  0  0  0  0  0  0
    2.1943    7.6541   -0.6133 C   0  0  0  0  0  0  0  0  0  0  0  0
   -4.5669    2.8232    1.4505 C   0  0  0  0  0  0  0  0  0  0  0  0
   -5.5345    0.6498   -1.1577 C   0  0  0  0  0  0  0  0  0  0  0  0
   -5.7999    1.9794   -1.7666 C   0  0  0  0  0  0  0  0  0  0  0  0
   -6.9915    2.6439   -1.1416 C   0  0  0  0  0  0  0  0  0  0  0  0
   -7.2130    3.9359   -1.7325 N   0  0  0  0  0  0  0  0  0  0  0  0
   -7.6381    4.1710   -2.9140 C   0  0  0  0  0  0  0  0  0  0  0  0
   -7.7842    5.5412   -3.2928 N   0  0  0  0  0  0  0  0  0  0  0  0
   -7.9639    3.1572   -3.8480 N   0  0  0  0  0  0  0  0  0  0  0  0
   -3.9800   -0.2865    2.9429 C   0  0  0  0  0  0  0  0  0  0  0  0
   -5.7017   -3.2186    2.4573 C   0  0  0  0  0  0  0  0  0  0  0  0
   -6.8428   -3.3172    1.5723 C   0  0  0  0  0  0  0  0  0  0  0  0
   -7.8788   -2.3327    1.6160 C   0  0  0  0  0  0  0  0  0  0  0  0
   -8.8059   -2.6212    0.7264 N   0  0  0  0  0  0  0  0  0  0  0  0
   -8.4924   -3.7348    0.0669 C   0  0  0  0  0  0  0  0  0  0  0  0
   -7.2734   -4.1628    0.5965 C   0  0  0  0  0  0  0  0  0  0  0  0
   -6.7446   -5.3061    0.0967 C   0  0  0  0  0  0  0  0  0  0  0  0
   -7.3554   -6.0373   -0.8941 C   0  0  0  0  0  0  0  0  0  0  0  0
   -8.5556   -5.6166   -1.4196 C   0  0  0  0  0  0  0  0  0  0  0  0
   -9.1071   -4.4722   -0.9326 C   0  0  0  0  0  0  0  0  0  0  0  0
   -2.8766   -5.3517   -1.4082 C   0  0  0  0  0  0  0  0  0  0  0  0
   -4.1076   -5.2874   -1.5927 O   0  0  0  0  0  0  0  0  0  0  0  0
   -2.0814   -5.7363   -2.5239 N   0  0  0  0  0  0  0  0  0  0  0  0
    8.4989   -0.6590    1.2281 N   0  0  0  0  0  0  0  0  0  0  0  0
    8.9685   -1.6077    2.1702 C   0  0  0  0  0  0  0  0  0  0  0  0
    9.4524   -2.7238    1.8645 O   0  0  0  0  0  0  0  0  0  0  0  0
    8.8634   -1.2128    3.6143 C   0  0  0  0  0  0  0  0  0  0  0  0
   13.1455   -1.7630    0.4772 H   0  0  0  0  0  0  0  0  0  0  0  0
   12.9638    0.0225    0.6653 H   0  0  0  0  0  0  0  0  0  0  0  0
   13.6271   -0.7004   -0.8677 H   0  0  0  0  0  0  0  0  0  0  0  0
   11.5545   -1.0603   -1.7143 H   0  0  0  0  0  0  0  0  0  0  0  0
   11.0075   -1.8368   -0.2109 H   0  0  0  0  0  0  0  0  0  0  0  0
   10.7183    0.6144    0.7412 H   0  0  0  0  0  0  0  0  0  0  0  0
   11.2156    1.1686   -0.8689 H   0  0  0  0  0  0  0  0  0  0  0  0
    9.3801    0.0631   -1.9584 H   0  0  0  0  0  0  0  0  0  0  0  0
    8.8059    1.2432   -0.7249 H   0  0  0  0  0  0  0  0  0  0  0  0
    8.9956   -1.8371   -0.4408 H   0  0  0  0  0  0  0  0  0  0  0  0
    6.1532   -0.8585    1.2337 H   0  0  0  0  0  0  0  0  0  0  0  0
    4.7638   -0.8707   -1.4610 H   0  0  0  0  0  0  0  0  0  0  0  0
    4.9083   -3.1079   -0.7172 H   0  0  0  0  0  0  0  0  0  0  0  0
    4.4756   -2.6953    0.9426 H   0  0  0  0  0  0  0  0  0  0  0  0
    3.1299   -4.7355    0.2435 H   0  0  0  0  0  0  0  0  0  0  0  0
    0.4816   -3.9309    0.2354 H   0  0  0  0  0  0  0  0  0  0  0  0
    0.7437   -4.4452   -1.4612 H   0  0  0  0  0  0  0  0  0  0  0  0
    1.8390   -6.6158   -0.4252 H   0  0  0  0  0  0  0  0  0  0  0  0
    1.1714   -6.0317    1.0999 H   0  0  0  0  0  0  0  0  0  0  0  0
   -0.4931   -6.9121   -1.3298 H   0  0  0  0  0  0  0  0  0  0  0  0
   -0.1354   -7.8187    0.1934 H   0  0  0  0  0  0  0  0  0  0  0  0
   -1.2763   -6.0623    1.5606 H   0  0  0  0  0  0  0  0  0  0  0  0
   -2.2850   -7.0710    0.5472 H   0  0  0  0  0  0  0  0  0  0  0  0
   -1.6049   -4.1722   -0.2121 H   0  0  0  0  0  0  0  0  0  0  0  0
   -3.7911   -5.3232    1.4611 H   0  0  0  0  0  0  0  0  0  0  0  0
   -3.8111   -2.7134    3.1338 H   0  0  0  0  0  0  0  0  0  0  0  0
   -6.1542    1.0585    0.8222 H   0  0  0  0  0  0  0  0  0  0  0  0
   -1.5220    2.3274   -1.1653 H   0  0  0  0  0  0  0  0  0  0  0  0
    1.9618    1.4606    1.5130 H   0  0  0  0  0  0  0  0  0  0  0  0
    2.6526    0.5277   -1.2876 H   0  0  0  0  0  0  0  0  0  0  0  0
    2.7041    3.1191   -0.9209 H   0  0  0  0  0  0  0  0  0  0  0  0
    1.9215    3.8368    0.4769 H   0  0  0  0  0  0  0  0  0  0  0  0
    3.5767    3.7216    2.7575 H   0  0  0  0  0  0  0  0  0  0  0  0
    6.1351    3.7158    3.0939 H   0  0  0  0  0  0  0  0  0  0  0  0
    5.2247    2.5121   -0.9122 H   0  0  0  0  0  0  0  0  0  0  0  0
    0.3772    3.2018    2.1557 H   0  0  0  0  0  0  0  0  0  0  0  0
    0.1162    1.4969    2.3662 H   0  0  0  0  0  0  0  0  0  0  0  0
   -1.3098    2.4762    2.5013 H   0  0  0  0  0  0  0  0  0  0  0  0
   -2.8552    4.2213   -1.0322 H   0  0  0  0  0  0  0  0  0  0  0  0
   -2.6710    4.4103    0.6960 H   0  0  0  0  0  0  0  0  0  0  0  0
   -0.7888    5.3019    1.7371 H   0  0  0  0  0  0  0  0  0  0  0  0
    1.0520    6.8486    1.6090 H   0  0  0  0  0  0  0  0  0  0  0  0
   -0.9321    4.8538   -2.4836 H   0  0  0  0  0  0  0  0  0  0  0  0
    0.6425    6.0946   -3.7996 H   0  0  0  0  0  0  0  0  0  0  0  0
    2.4873    7.6558   -3.9941 H   0  0  0  0  0  0  0  0  0  0  0  0
    3.5154    8.6804   -1.9986 H   0  0  0  0  0  0  0  0  0  0  0  0
    2.6068    8.0730    0.2814 H   0  0  0  0  0  0  0  0  0  0  0  0
   -4.8228    3.6871    0.8164 H   0  0  0  0  0  0  0  0  0  0  0  0
   -5.4655    2.5297    2.0894 H   0  0  0  0  0  0  0  0  0  0  0  0
   -3.7757    3.1676    2.1536 H   0  0  0  0  0  0  0  0  0  0  0  0
   -4.8443    0.0172   -1.7114 H   0  0  0  0  0  0  0  0  0  0  0  0
   -6.5248    0.0967   -1.1776 H   0  0  0  0  0  0  0  0  0  0  0  0
   -6.0663    1.7988   -2.8315 H   0  0  0  0  0  0  0  0  0  0  0  0
   -4.9116    2.6479   -1.7819 H   0  0  0  0  0  0  0  0  0  0  0  0
   -6.9528    2.7060   -0.0583 H   0  0  0  0  0  0  0  0  0  0  0  0
   -7.8808    2.0136   -1.4788 H   0  0  0  0  0  0  0  0  0  0  0  0
   -7.8808    5.8311   -4.2981 H   0  0  0  0  0  0  0  0  0  0  0  0
   -7.8015    6.3245   -2.5885 H   0  0  0  0  0  0  0  0  0  0  0  0
   -8.7994    2.5491   -3.6060 H   0  0  0  0  0  0  0  0  0  0  0  0
   -7.4066    3.0313   -4.7147 H   0  0  0  0  0  0  0  0  0  0  0  0
   -3.2785    0.4389    2.5535 H   0  0  0  0  0  0  0  0  0  0  0  0
   -3.5901   -0.8397    3.8343 H   0  0  0  0  0  0  0  0  0  0  0  0
   -4.8153    0.3162    3.4240 H   0  0  0  0  0  0  0  0  0  0  0  0
   -5.5021   -4.3175    2.7857 H   0  0  0  0  0  0  0  0  0  0  0  0
   -6.0591   -2.8422    3.5068 H   0  0  0  0  0  0  0  0  0  0  0  0
   -7.9093   -1.4765    2.2743 H   0  0  0  0  0  0  0  0  0  0  0  0
   -9.6751   -2.0495    0.5605 H   0  0  0  0  0  0  0  0  0  0  0  0
   -5.8259   -5.6648    0.4883 H   0  0  0  0  0  0  0  0  0  0  0  0
   -6.9124   -6.9273   -1.2640 H   0  0  0  0  0  0  0  0  0  0  0  0
   -9.0709   -6.1757   -2.2130 H   0  0  0  0  0  0  0  0  0  0  0  0
  -10.0587   -4.1491   -1.3592 H   0  0  0  0  0  0  0  0  0  0  0  0
   -2.1965   -6.6100   -3.0554 H   0  0  0  0  0  0  0  0  0  0  0  0
   -1.3010   -5.0942   -2.8556 H   0  0  0  0  0  0  0  0  0  0  0  0
    8.0971    0.2738    1.5462 H   0  0  0  0  0  0  0  0  0  0  0  0
    8.1281   -0.3898    3.7643 H   0  0  0  0  0  0  0  0  0  0  0  0
    9.8501   -0.8606    3.9455 H   0  0  0  0  0  0  0  0  0  0  0  0
    8.4886   -2.1001    4.1587 H   0  0  0  0  0  0  0  0  0  0  0  0
  1  2  1  0
  2  3  1  0
  3  4  1  0
  4  5  1  0
  5  6  1  0
  6  7  2  0
  6  8  1  0
  8  9  1  0
  9 10  1  0
 10 11  1  0
 11 12  2  0
 11 13  1  0
 13 14  1  0
 14 15  1  0
 15 16  1  0
 16 17  1  0
 17 18  1  0
 18 19  1  0
 19 20  1  0
 20 21  2  0
 20 22  1  0
 22 23  1  0
 23 24  1  0
 24 25  2  0
 24 26  1  0
 26 27  1  0
 27 28  1  0
 28 29  2  0
 28 30  1  0
 30 31  1  0
 31 32  1  0
 32 33  2  0
 32 34  1  0
 34 35  1  0
 35 36  1  0
 36 37  2  0
 34 38  1  0
 38 39  1  0
 39 40  1  0
 40 41  1  0
 41 42  2  0
 42 43  1  0
 31 44  1  0
 30 45  1  0
 45 46  1  0
 46 47  2  0
 47 48  1  0
 48 49  2  0
 49 50  1  0
 50 51  2  0
 50 52  1  0
 52 53  2  0
 53 54  1  0
 54 55  2  0
 27 56  1  0
 26 57  1  0
 57 58  1  0
 58 59  1  0
 59 60  1  0
 60 61  2  3
 61 62  1  0
 61 63  1  0
 23 64  1  0
 22 65  1  0
 65 66  1  0
 66 67  2  0
 67 68  1  0
 68 69  1  0
 69 70  2  0
 70 71  1  0
 71 72  2  0
 72 73  1  0
 73 74  2  0
 18 75  1  0
 75 76  2  0
 75 77  1  0
  5 78  1  0
 78 79  1  0
 79 80  2  0
 79 81  1  0
 36  9  1  0
 43 39  2  0
 51 46  1  0
 70 66  1  0
 55 49  1  0
 74 69  1  0
  1 82  1  0
  1 83  1  0
  1 84  1  0
  2 85  1  0
  2 86  1  0
  3 87  1  0
  3 88  1  0
  4 89  1  0
  4 90  1  0
  5 91  1  1
  8 92  1  0
  9 93  1  6
 10 94  1  0
 10 95  1  0
 13 96  1  0
 14 97  1  0
 14 98  1  0
 15 99  1  0
 15100  1  0
 16101  1  0
 16102  1  0
 17103  1  0
 17104  1  0
 18105  1  6
 19106  1  0
 22107  1  1
 26108  1  1
 30109  1  6
 34110  1  1
 35111  1  0
 38112  1  0
 38113  1  0
 40114  1  0
 41115  1  0
 43116  1  0
 44117  1  0
 44118  1  0
 44119  1  0
 45120  1  0
 45121  1  0
 47122  1  0
 48123  1  0
 51124  1  0
 52125  1  0
 53126  1  0
 54127  1  0
 55128  1  0
 56129  1  0
 56130  1  0
 56131  1  0
 57132  1  0
 57133  1  0
 58134  1  0
 58135  1  0
 59136  1  0
 59137  1  0
 62138  1  0
 62139  1  0
 63140  1  0
 63141  1  0
 64142  1  0
 64143  1  0
 64144  1  0
 65145  1  0
 65146  1  0
 67147  1  0
 68148  1  0
 71149  1  0
 72150  1  0
 73151  1  0
 74152  1  0
 77153  1  0
 77154  1  0
 78155  1  0
 81156  1  0
 81157  1  0
 81158  1  0
M  END
>  <Ligand ID>  (1) 
LIG0001817

>  <Ligand>  (1) 
CHEMBL3600920

>  <SMILES>  (1) 
CCCC[C@H](C(=O)N[C@H]1CC(=O)NCCCC[C@H](NC(=O)[C@@H](N(C(=O)[C@@H](N(C(=O)[C@H](N(C(=O)[C@@H](NC1=O)Cc1[nH]cnc1)C)Cc1ccc2c(c1)cccc2)C)CCCN=C(N)N)C)Cc1c[nH]c2c1cccc2)C(=O)N)NC(=O)C

>  <CID>  (1) 
122184639.0

>  <ChEMBL ID>  (1) 
nan

>  <InChiKey>  (1) 
LGJDLKCHZMGHIM-QROJCATNSA-N

>  <InChi>  (1) 
InChI=1S/C57H77N15O9/c1-6-7-18-43(66-34(2)73)51(76)68-44-30-49(74)62-24-13-12-20-42(50(58)75)67-53(78)47(28-38-31-64-41-19-11-10-17-40(38)41)71(4)55(80)46(21-14-25-63-57(59)60)70(3)56(81)48(27-35-22-23-36-15-8-9-16-37(36)26-35)72(5)54(79)45(69-52(44)77)29-39-32-61-33-65-39/h8-11,15-17,19,22-23,26,31-33,42-48,64H,6-7,12-14,18,20-21,24-25,27-30H2,1-5H3,(H2,58,75)(H,61,65)(H,62,74)(H,66,73)(H,67,78)(H,68,76)(H,69,77)(H4,59,60,63)/t42-,43+,44-,45-,46-,47-,48+/m0/s1

>  <IUPAC Name>  (1) 
(3S,6S,9R,12S,15S,23S)-15-[[(2R)-2-acetamidohexanoyl]amino]-6-[3-(diaminomethylideneamino)propyl]-12-(1H-imidazol-5-ylmethyl)-3-(1H-indol-3-ylmethyl)-4,7,10-trimethyl-9-(naphthalen-2-ylmethyl)-2,5,8,11,14,17-hexaoxo-1,4,7,10,13,18-hexazacyclotricosane-23-carboxamide

$$$$
