
     RDKit          3D

 44 48  0  0  0  0  0  0  0  0999 V2000
    7.1218   -0.0492    0.6529 F   0  0  0  0  0  0  0  0  0  0  0  0
    5.7759   -0.0828    0.5045 C   0  0  0  0  0  0  0  0  0  0  0  0
    4.9612   -0.2926    1.5972 C   0  0  0  0  0  0  0  0  0  0  0  0
    3.5853   -0.3287    1.4567 C   0  0  0  0  0  0  0  0  0  0  0  0
    2.9608   -0.1581    0.2256 C   0  0  0  0  0  0  0  0  0  0  0  0
    3.8066    0.0500   -0.8493 C   0  0  0  0  0  0  0  0  0  0  0  0
    5.1814    0.0893   -0.7285 C   0  0  0  0  0  0  0  0  0  0  0  0
    2.9800    0.2107   -2.0926 C   0  0  0  0  0  0  0  0  0  0  0  0
    1.6240   -0.3046   -1.6414 C   0  0  0  0  0  0  0  0  0  0  0  0
    1.5951   -0.1456   -0.2078 N   0  0  0  0  0  0  0  0  0  0  0  0
    0.5133   -0.0102    0.6958 C   0  0  0  0  0  0  0  0  0  0  0  0
    0.7906    0.0741    1.9460 O   0  0  0  0  0  0  0  0  0  0  0  0
   -0.9062    0.0427    0.3444 C   0  0  0  0  0  0  0  0  0  0  0  0
   -1.6620    0.0511    1.6875 C   0  0  0  0  0  0  0  0  0  0  0  0
   -3.1397   -0.0040    1.5273 C   0  0  0  0  0  0  0  0  0  0  0  0
   -3.5242   -1.2131    0.7388 C   0  0  0  0  0  0  0  0  0  0  0  0
   -2.8709   -1.0986   -0.6116 C   0  0  0  0  0  0  0  0  0  0  0  0
   -1.3843   -1.1322   -0.4592 C   0  0  0  0  0  0  0  0  0  0  0  0
   -3.3163    0.1673   -1.3062 C   0  0  0  0  0  0  0  0  0  0  0  0
   -2.8450    1.3272   -0.4636 C   0  0  0  0  0  0  0  0  0  0  0  0
   -1.3324    1.3339   -0.3308 C   0  0  0  0  0  0  0  0  0  0  0  0
   -3.5674    1.2781    0.8435 C   0  0  0  0  0  0  0  0  0  0  0  0
    5.4559   -0.4240    2.5491 H   0  0  0  0  0  0  0  0  0  0  0  0
    3.0129   -0.4954    2.3425 H   0  0  0  0  0  0  0  0  0  0  0  0
    5.8122    0.2527   -1.5809 H   0  0  0  0  0  0  0  0  0  0  0  0
    2.9594    1.2514   -2.4532 H   0  0  0  0  0  0  0  0  0  0  0  0
    3.4350   -0.4010   -2.8929 H   0  0  0  0  0  0  0  0  0  0  0  0
    0.8861    0.2567   -2.2051 H   0  0  0  0  0  0  0  0  0  0  0  0
    1.6284   -1.3925   -1.9220 H   0  0  0  0  0  0  0  0  0  0  0  0
   -1.2889   -0.8704    2.2004 H   0  0  0  0  0  0  0  0  0  0  0  0
   -1.3103    0.9596    2.2166 H   0  0  0  0  0  0  0  0  0  0  0  0
   -3.5869   -0.0121    2.5218 H   0  0  0  0  0  0  0  0  0  0  0  0
   -4.6172   -1.2722    0.6532 H   0  0  0  0  0  0  0  0  0  0  0  0
   -3.1009   -2.0976    1.2675 H   0  0  0  0  0  0  0  0  0  0  0  0
   -3.2026   -1.9303   -1.2621 H   0  0  0  0  0  0  0  0  0  0  0  0
   -0.9511   -1.1405   -1.4676 H   0  0  0  0  0  0  0  0  0  0  0  0
   -1.1169   -2.0800    0.0580 H   0  0  0  0  0  0  0  0  0  0  0  0
   -2.8429    0.2074   -2.3136 H   0  0  0  0  0  0  0  0  0  0  0  0
   -4.4035    0.1828   -1.3650 H   0  0  0  0  0  0  0  0  0  0  0  0
   -3.1608    2.2725   -0.9652 H   0  0  0  0  0  0  0  0  0  0  0  0
   -1.0588    2.1848    0.3136 H   0  0  0  0  0  0  0  0  0  0  0  0
   -0.9563    1.4368   -1.3625 H   0  0  0  0  0  0  0  0  0  0  0  0
   -4.6329    1.1853    0.6406 H   0  0  0  0  0  0  0  0  0  0  0  0
   -3.3072    2.1214    1.4973 H   0  0  0  0  0  0  0  0  0  0  0  0
  1  2  1  0
  2  3  1  0
  3  4  2  0
  4  5  1  0
  5  6  2  0
  6  7  1  0
  6  8  1  0
  8  9  1  0
  9 10  1  0
 10 11  1  0
 11 12  2  0
 11 13  1  0
 13 14  1  0
 14 15  1  0
 15 16  1  0
 16 17  1  0
 17 18  1  0
 17 19  1  0
 19 20  1  0
 20 21  1  0
 20 22  1  0
  7  2  2  0
 21 13  1  0
 10  5  1  0
 18 13  1  0
 22 15  1  0
  3 23  1  0
  4 24  1  0
  7 25  1  0
  8 26  1  0
  8 27  1  0
  9 28  1  0
  9 29  1  0
 14 30  1  0
 14 31  1  0
 15 32  1  0
 16 33  1  0
 16 34  1  0
 17 35  1  0
 18 36  1  0
 18 37  1  0
 19 38  1  0
 19 39  1  0
 20 40  1  0
 21 41  1  0
 21 42  1  0
 22 43  1  0
 22 44  1  0
M  END
>  <Ligand ID>  (1) 
LIG0001375

>  <Ligand>  (1) 
CHEMBL2338183

>  <SMILES>  (1) 
Fc1ccc2c(c1)CCN2C(=O)C12CC3CC(C2)CC(C1)C3

>  <CID>  (1) 
71559526.0

>  <ChEMBL ID>  (1) 
nan

>  <InChiKey>  (1) 
UPGRPJQVXCCOIK-UHFFFAOYSA-N

>  <InChi>  (1) 
InChI=1S/C19H22FNO/c20-16-1-2-17-15(8-16)3-4-21(17)18(22)19-9-12-5-13(10-19)7-14(6-12)11-19/h1-2,8,12-14H,3-7,9-11H2

>  <IUPAC Name>  (1) 
1-adamantyl-(5-fluoro-2,3-dihydroindol-1-yl)methanone

$$$$
