
     RDKit          3D

133135  0  0  0  0  0  0  0  0999 V2000
    8.7739   -4.0241   -2.0990 N   0  0  0  0  0  0  0  0  0  0  0  0
    7.8135   -3.1238   -2.7545 C   0  0  0  0  0  0  0  0  0  0  0  0
    8.0288   -1.7520   -2.1141 C   0  0  0  0  0  0  0  0  0  0  0  0
    7.7653   -1.9163   -0.6575 C   0  0  0  0  0  0  0  0  0  0  0  0
    7.9074   -0.7272    0.1999 C   0  0  1  0  0  0  0  0  0  0  0  0
    9.2920   -0.2085    0.1311 C   0  0  0  0  0  0  0  0  0  0  0  0
    9.4131    1.0210   -0.1788 O   0  0  0  0  0  0  0  0  0  0  0  0
   10.4382   -0.9722    0.3860 N   0  0  0  0  0  0  0  0  0  0  0  0
   11.7984   -0.5108    0.3464 C   0  0  0  0  0  0  0  0  0  0  0  0
   12.1752   -0.0383   -0.9840 C   0  0  0  0  0  0  0  0  0  0  0  0
   13.3711    0.3993   -1.1167 O   0  0  0  0  0  0  0  0  0  0  0  0
   11.3812   -0.0050   -2.1467 N   0  0  0  0  0  0  0  0  0  0  0  0
    7.0093    0.3729   -0.0636 N   0  0  0  0  0  0  0  0  0  0  0  0
    6.1043    0.7573    0.9213 C   0  0  0  0  0  0  0  0  0  0  0  0
    6.0953    0.1210    2.0126 O   0  0  0  0  0  0  0  0  0  0  0  0
    5.1112    1.8770    0.8314 C   0  0  2  0  0  0  0  0  0  0  0  0
    5.9791    3.1351    0.7491 C   0  0  0  0  0  0  0  0  0  0  0  0
    6.1144    3.6459    2.1393 C   0  0  0  0  0  0  0  0  0  0  0  0
    5.4384    2.6065    2.9822 C   0  0  0  0  0  0  0  0  0  0  0  0
    4.4241    2.0246    2.0911 N   0  0  0  0  0  0  0  0  0  0  0  0
    3.1582    1.6750    2.5844 C   0  0  0  0  0  0  0  0  0  0  0  0
    3.0985    1.7707    3.8966 O   0  0  0  0  0  0  0  0  0  0  0  0
    1.9404    1.2384    1.9549 C   0  0  2  0  0  0  0  0  0  0  0  0
    1.9683   -0.3132    2.0143 C   0  0  0  0  0  0  0  0  0  0  0  0
    0.5539   -0.9901    1.1719 S   0  0  0  0  0  0  0  0  0  0  0  0
    0.4736   -3.0929    1.4629 S   0  0  0  0  0  0  0  0  0  0  0  0
   -0.5091   -3.4588    2.9780 C   0  0  0  0  0  0  0  0  0  0  0  0
   -1.8950   -2.8831    2.7969 C   0  0  2  0  0  0  0  0  0  0  0  0
   -2.7417   -3.1927    3.8920 N   0  0  0  0  0  0  0  0  0  0  0  0
   -2.4350   -3.1305    1.4457 C   0  0  0  0  0  0  0  0  0  0  0  0
   -1.7416   -3.1280    0.4171 O   0  0  0  0  0  0  0  0  0  0  0  0
   -3.8376   -3.3944    1.2019 N   0  0  0  0  0  0  0  0  0  0  0  0
   -4.3461   -3.6607   -0.1253 C   0  0  1  0  0  0  0  0  0  0  0  0
   -5.0179   -4.9996   -0.2452 C   0  0  0  0  0  0  0  0  0  0  0  0
   -6.1625   -5.2101    0.6413 C   0  0  0  0  0  0  0  0  0  0  0  0
   -5.9053   -5.7580    1.8952 C   0  0  0  0  0  0  0  0  0  0  0  0
   -6.9038   -6.0108    2.8131 C   0  0  0  0  0  0  0  0  0  0  0  0
   -8.2140   -5.7136    2.4885 C   0  0  0  0  0  0  0  0  0  0  0  0
   -8.5093   -5.1636    1.2409 C   0  0  0  0  0  0  0  0  0  0  0  0
   -7.4745   -4.9194    0.3339 C   0  0  0  0  0  0  0  0  0  0  0  0
   -5.2231   -2.6133   -0.6775 C   0  0  0  0  0  0  0  0  0  0  0  0
   -5.7909   -2.8467   -1.7590 O   0  0  0  0  0  0  0  0  0  0  0  0
   -5.4874   -1.3406   -0.0912 N   0  0  0  0  0  0  0  0  0  0  0  0
   -6.4377   -0.4946   -0.7916 C   0  0  2  0  0  0  0  0  0  0  0  0
   -5.7685    0.6394   -1.4261 C   0  0  0  0  0  0  0  0  0  0  0  0
   -6.3872    1.2256   -2.3494 O   0  0  0  0  0  0  0  0  0  0  0  0
   -4.4903    1.1968   -1.1351 N   0  0  0  0  0  0  0  0  0  0  0  0
   -4.0608    2.2759   -2.0448 C   0  0  2  0  0  0  0  0  0  0  0  0
   -2.6077    2.4999   -2.0812 C   0  0  0  0  0  0  0  0  0  0  0  0
   -2.0925    2.8495   -3.1511 O   0  0  0  0  0  0  0  0  0  0  0  0
   -1.7229    2.3692   -0.9884 N   0  0  0  0  0  0  0  0  0  0  0  0
   -0.2941    2.4245   -0.9383 C   0  0  2  0  0  0  0  0  0  0  0  0
    0.2218    1.8691    0.3399 C   0  0  0  0  0  0  0  0  0  0  0  0
   -0.5712    1.5672    1.2227 O   0  0  0  0  0  0  0  0  0  0  0  0
    1.6220    1.6530    0.6150 N   0  0  0  0  0  0  0  0  0  0  0  0
    0.2619    3.8431   -1.0910 C   0  0  0  0  0  0  0  0  0  0  0  0
    0.0338    4.5589   -2.3075 C   0  0  0  0  0  0  0  0  0  0  0  0
    0.5651    4.0971   -3.3906 O   0  0  0  0  0  0  0  0  0  0  0  0
   -0.7185    5.7500   -2.4916 N   0  0  0  0  0  0  0  0  0  0  0  0
   -4.7942    3.5552   -1.5866 C   0  0  0  0  0  0  0  0  0  0  0  0
   -4.3983    4.6697   -2.5194 C   0  0  0  0  0  0  0  0  0  0  0  0
   -5.1109    5.9168   -2.0906 C   0  0  0  0  0  0  0  0  0  0  0  0
   -5.9014    5.9038   -1.0841 O   0  0  0  0  0  0  0  0  0  0  0  0
   -4.9703    7.1634   -2.7445 N   0  0  0  0  0  0  0  0  0  0  0  0
   -7.5814   -0.0960    0.1056 C   0  0  2  0  0  0  0  0  0  0  0  0
   -8.5541    0.7719   -0.6226 C   0  0  0  0  0  0  0  0  0  0  0  0
   -9.2032    0.1659   -1.8180 C   0  0  0  0  0  0  0  0  0  0  0  0
   -7.1225    0.5986    1.3657 C   0  0  0  0  0  0  0  0  0  0  0  0
    9.7128   -3.9288   -2.5339 H   0  0  0  0  0  0  0  0  0  0  0  0
    8.4782   -5.0012   -2.1573 H   0  0  0  0  0  0  0  0  0  0  0  0
    8.1366   -3.1015   -3.8164 H   0  0  0  0  0  0  0  0  0  0  0  0
    6.8023   -3.4896   -2.6284 H   0  0  0  0  0  0  0  0  0  0  0  0
    7.4246   -0.9763   -2.6017 H   0  0  0  0  0  0  0  0  0  0  0  0
    9.0852   -1.5128   -2.3142 H   0  0  0  0  0  0  0  0  0  0  0  0
    8.5470   -2.6495   -0.2916 H   0  0  0  0  0  0  0  0  0  0  0  0
    6.8135   -2.4956   -0.4588 H   0  0  0  0  0  0  0  0  0  0  0  0
    7.7400   -1.0569    1.2529 H   0  0  0  0  0  0  0  0  0  0  0  0
   10.2907   -1.9848    0.6310 H   0  0  0  0  0  0  0  0  0  0  0  0
   11.9444    0.3709    1.0348 H   0  0  0  0  0  0  0  0  0  0  0  0
   12.5001   -1.2750    0.7512 H   0  0  0  0  0  0  0  0  0  0  0  0
   11.3560   -0.8985   -2.7174 H   0  0  0  0  0  0  0  0  0  0  0  0
   10.8368    0.7920   -2.4905 H   0  0  0  0  0  0  0  0  0  0  0  0
    7.0074    0.8949   -0.9732 H   0  0  0  0  0  0  0  0  0  0  0  0
    4.5225    1.8555   -0.0640 H   0  0  0  0  0  0  0  0  0  0  0  0
    6.9832    2.9217    0.3368 H   0  0  0  0  0  0  0  0  0  0  0  0
    5.4815    3.9091    0.1171 H   0  0  0  0  0  0  0  0  0  0  0  0
    5.6442    4.6512    2.2834 H   0  0  0  0  0  0  0  0  0  0  0  0
    7.1894    3.6940    2.4853 H   0  0  0  0  0  0  0  0  0  0  0  0
    6.1162    1.8999    3.4309 H   0  0  0  0  0  0  0  0  0  0  0  0
    4.9663    3.1649    3.8281 H   0  0  0  0  0  0  0  0  0  0  0  0
    1.0466    1.4594    2.6389 H   0  0  0  0  0  0  0  0  0  0  0  0
    1.9690   -0.6348    3.0706 H   0  0  0  0  0  0  0  0  0  0  0  0
    2.8995   -0.6854    1.5514 H   0  0  0  0  0  0  0  0  0  0  0  0
    0.0336   -3.0619    3.8405 H   0  0  0  0  0  0  0  0  0  0  0  0
   -0.5824   -4.5405    3.0457 H   0  0  0  0  0  0  0  0  0  0  0  0
   -1.7127   -1.7527    2.8302 H   0  0  0  0  0  0  0  0  0  0  0  0
   -2.4375   -2.6004    4.7216 H   0  0  0  0  0  0  0  0  0  0  0  0
   -2.5842   -4.1888    4.2040 H   0  0  0  0  0  0  0  0  0  0  0  0
   -4.4110   -3.3769    2.0437 H   0  0  0  0  0  0  0  0  0  0  0  0
   -3.4347   -3.7588   -0.8275 H   0  0  0  0  0  0  0  0  0  0  0  0
   -4.2395   -5.8092   -0.1280 H   0  0  0  0  0  0  0  0  0  0  0  0
   -5.3223   -5.0803   -1.3304 H   0  0  0  0  0  0  0  0  0  0  0  0
   -4.8953   -6.0002    2.1883 H   0  0  0  0  0  0  0  0  0  0  0  0
   -6.7179   -6.4298    3.7752 H   0  0  0  0  0  0  0  0  0  0  0  0
   -8.9925   -5.9156    3.2118 H   0  0  0  0  0  0  0  0  0  0  0  0
   -9.5395   -4.9466    1.0259 H   0  0  0  0  0  0  0  0  0  0  0  0
   -7.7090   -4.4890   -0.6433 H   0  0  0  0  0  0  0  0  0  0  0  0
   -4.9893   -1.1350    0.7633 H   0  0  0  0  0  0  0  0  0  0  0  0
   -6.9238   -1.0671   -1.6372 H   0  0  0  0  0  0  0  0  0  0  0  0
   -3.9880    0.8280   -0.3539 H   0  0  0  0  0  0  0  0  0  0  0  0
   -4.4753    2.0707   -3.0248 H   0  0  0  0  0  0  0  0  0  0  0  0
   -2.2187    2.2147   -0.0800 H   0  0  0  0  0  0  0  0  0  0  0  0
    0.1780    1.9059   -1.8232 H   0  0  0  0  0  0  0  0  0  0  0  0
    2.2263    1.8139   -0.1753 H   0  0  0  0  0  0  0  0  0  0  0  0
    1.3473    3.7711   -0.7881 H   0  0  0  0  0  0  0  0  0  0  0  0
   -0.1876    4.4147   -0.2151 H   0  0  0  0  0  0  0  0  0  0  0  0
   -1.3732    5.8998   -3.3079 H   0  0  0  0  0  0  0  0  0  0  0  0
   -0.6000    6.4985   -1.7788 H   0  0  0  0  0  0  0  0  0  0  0  0
   -5.8594    3.3724   -1.7629 H   0  0  0  0  0  0  0  0  0  0  0  0
   -4.5161    3.8097   -0.5538 H   0  0  0  0  0  0  0  0  0  0  0  0
   -3.3365    4.8826   -2.4948 H   0  0  0  0  0  0  0  0  0  0  0  0
   -4.6973    4.4559   -3.5708 H   0  0  0  0  0  0  0  0  0  0  0  0
   -5.2462    7.3779   -3.7113 H   0  0  0  0  0  0  0  0  0  0  0  0
   -4.5425    7.9670   -2.2044 H   0  0  0  0  0  0  0  0  0  0  0  0
   -8.0903   -1.0334    0.4110 H   0  0  0  0  0  0  0  0  0  0  0  0
   -8.0632    1.7558   -0.8496 H   0  0  0  0  0  0  0  0  0  0  0  0
   -9.3453    1.0476    0.1350 H   0  0  0  0  0  0  0  0  0  0  0  0
   -8.5718   -0.3858   -2.5072 H   0  0  0  0  0  0  0  0  0  0  0  0
   -9.6367    1.0209   -2.4180 H   0  0  0  0  0  0  0  0  0  0  0  0
  -10.1017   -0.4021   -1.4868 H   0  0  0  0  0  0  0  0  0  0  0  0
   -6.5574   -0.0413    2.0489 H   0  0  0  0  0  0  0  0  0  0  0  0
   -8.0715    0.8790    1.9117 H   0  0  0  0  0  0  0  0  0  0  0  0
   -6.6579    1.5859    1.1487 H   0  0  0  0  0  0  0  0  0  0  0  0
  1  2  1  0
  2  3  1  0
  3  4  1  0
  4  5  1  0
  5  6  1  0
  6  7  2  0
  6  8  1  0
  8  9  1  0
  9 10  1  0
 10 11  2  0
 10 12  1  0
  5 13  1  0
 13 14  1  0
 14 15  2  0
 14 16  1  0
 16 17  1  0
 17 18  1  0
 18 19  1  0
 19 20  1  0
 20 21  1  0
 21 22  2  0
 21 23  1  0
 23 24  1  0
 24 25  1  0
 25 26  1  0
 26 27  1  0
 27 28  1  0
 28 29  1  0
 28 30  1  0
 30 31  2  0
 30 32  1  0
 32 33  1  0
 33 34  1  0
 34 35  1  0
 35 36  2  0
 36 37  1  0
 37 38  2  0
 38 39  1  0
 39 40  2  0
 33 41  1  0
 41 42  2  0
 41 43  1  0
 43 44  1  0
 44 45  1  0
 45 46  2  0
 45 47  1  0
 47 48  1  0
 48 49  1  0
 49 50  2  0
 49 51  1  0
 51 52  1  0
 52 53  1  0
 53 54  2  0
 53 55  1  0
 52 56  1  0
 56 57  1  0
 57 58  2  0
 57 59  1  0
 48 60  1  0
 60 61  1  0
 61 62  1  0
 62 63  2  0
 62 64  1  0
 44 65  1  0
 65 66  1  0
 66 67  1  0
 65 68  1  0
 20 16  1  0
 55 23  1  0
 40 35  1  0
  1 69  1  0
  1 70  1  0
  2 71  1  0
  2 72  1  0
  3 73  1  0
  3 74  1  0
  4 75  1  0
  4 76  1  0
  5 77  1  1
  8 78  1  0
  9 79  1  0
  9 80  1  0
 12 81  1  0
 12 82  1  0
 13 83  1  0
 16 84  1  6
 17 85  1  0
 17 86  1  0
 18 87  1  0
 18 88  1  0
 19 89  1  0
 19 90  1  0
 23 91  1  1
 24 92  1  0
 24 93  1  0
 27 94  1  0
 27 95  1  0
 28 96  1  6
 29 97  1  0
 29 98  1  0
 32 99  1  0
 33100  1  6
 34101  1  0
 34102  1  0
 36103  1  0
 37104  1  0
 38105  1  0
 39106  1  0
 40107  1  0
 43108  1  0
 44109  1  6
 47110  1  0
 48111  1  6
 51112  1  0
 52113  1  6
 55114  1  0
 56115  1  0
 56116  1  0
 59117  1  0
 59118  1  0
 60119  1  0
 60120  1  0
 61121  1  0
 61122  1  0
 64123  1  0
 64124  1  0
 65125  1  1
 66126  1  0
 66127  1  0
 67128  1  0
 67129  1  0
 67130  1  0
 68131  1  0
 68132  1  0
 68133  1  0
M  END
>  <Ligand ID>  (1) 
LIG0000919

>  <Ligand>  (1) 
(Phe2,Orn8)-oxytocin

>  <SMILES>  (1) 
NCCC[C@@H](C(=O)NCC(=O)N)NC(=O)[C@@H]1CCCN1C(=O)[C@@H]1CSSC[C@H](N)C(=O)N[C@@H](Cc2ccccc2)C(=O)N[C@H](C(=O)N[C@H](C(=O)N[C@H](C(=O)N1)CC(=O)N)CCC(=O)N)[C@H](CC)C

>  <CID>  (1) 
9811830.0

>  <ChEMBL ID>  (1) 
nan

>  <InChiKey>  (1) 
DHMCDFJJCGVQSC-OVCMMVBBSA-N

>  <InChi>  (1) 
InChI=1S/C42H65N13O11S2/c1-3-22(2)34-41(65)50-26(13-14-31(45)56)37(61)52-28(18-32(46)57)38(62)53-29(21-68-67-20-24(44)35(59)51-27(39(63)54-34)17-23-9-5-4-6-10-23)42(66)55-16-8-12-30(55)40(64)49-25(11-7-15-43)36(60)48-19-33(47)58/h4-6,9-10,22,24-30,34H,3,7-8,11-21,43-44H2,1-2H3,(H2,45,56)(H2,46,57)(H2,47,58)(H,48,60)(H,49,64)(H,50,65)(H,51,59)(H,52,61)(H,53,62)(H,54,63)/t22-,24-,25-,26-,27-,28-,29-,30-,34-/m0/s1

>  <IUPAC Name>  (1) 
(2S)-N-[(2S)-5-amino-1-[(2-amino-2-oxoethyl)amino]-1-oxopentan-2-yl]-1-[(4R,7S,10S,13S,16S,19R)-19-amino-7-(2-amino-2-oxoethyl)-10-(3-amino-3-oxopropyl)-16-benzyl-13-[(2S)-butan-2-yl]-6,9,12,15,18-pentaoxo-1,2-dithia-5,8,11,14,17-pentazacycloicosane-4-carbonyl]pyrrolidine-2-carboxamide

$$$$
