
     RDKit          3D

 21 22  0  0  0  0  0  0  0  0999 V2000
   -2.2781    1.3303   -0.4713 N   0  0  0  0  0  0  0  0  0  0  0  0
   -2.4135   -0.0745   -0.2249 C   0  0  0  0  0  0  0  0  0  0  0  0
   -1.1401   -0.6129    0.3654 C   0  0  2  0  0  0  0  0  0  0  0  0
   -0.6107   -0.1035    1.6381 C   0  0  0  0  0  0  0  0  0  0  0  0
    0.0424    0.3825    0.4245 C   0  0  1  0  0  0  0  0  0  0  0  0
    1.3491   -0.1088   -0.0585 C   0  0  0  0  0  0  0  0  0  0  0  0
    1.8824   -1.3683    0.1834 C   0  0  0  0  0  0  0  0  0  0  0  0
    3.0726   -1.3952   -0.4308 N   0  0  0  0  0  0  0  0  0  0  0  0
    3.3160   -0.2365   -1.0391 C   0  0  0  0  0  0  0  0  0  0  0  0
    2.2482    0.5510   -0.8046 N   0  0  0  0  0  0  0  0  0  0  0  0
   -3.1333    1.8914   -0.4013 H   0  0  0  0  0  0  0  0  0  0  0  0
   -1.6771    1.5375   -1.2987 H   0  0  0  0  0  0  0  0  0  0  0  0
   -2.6794   -0.6391   -1.1408 H   0  0  0  0  0  0  0  0  0  0  0  0
   -3.2661   -0.1913    0.4864 H   0  0  0  0  0  0  0  0  0  0  0  0
   -0.8844   -1.6760    0.1420 H   0  0  0  0  0  0  0  0  0  0  0  0
   -1.2733    0.5963    2.1999 H   0  0  0  0  0  0  0  0  0  0  0  0
   -0.0462   -0.7712    2.3138 H   0  0  0  0  0  0  0  0  0  0  0  0
   -0.2041    1.4380    0.1165 H   0  0  0  0  0  0  0  0  0  0  0  0
    1.4526   -2.1871    0.7488 H   0  0  0  0  0  0  0  0  0  0  0  0
    4.1676    0.0961   -1.6245 H   0  0  0  0  0  0  0  0  0  0  0  0
    2.0754    1.5414   -1.1244 H   0  0  0  0  0  0  0  0  0  0  0  0
  1  2  1  0
  2  3  1  0
  3  4  1  0
  4  5  1  0
  5  6  1  0
  6  7  2  0
  7  8  1  0
  8  9  2  0
  9 10  1  0
  5  3  1  0
 10  6  1  0
  1 11  1  0
  1 12  1  0
  2 13  1  0
  2 14  1  0
  3 15  1  1
  4 16  1  0
  4 17  1  0
  5 18  1  6
  7 19  1  0
  9 20  1  0
 10 21  1  0
M  END
>  <Ligand ID>  (1) 
LIG0001193

>  <Ligand>  (1) 
CHEMBL302231

>  <SMILES>  (1) 
NC[C@@H]1C[C@H]1c1cnc[nH]1

>  <CID>  (1) 
11094685.0

>  <ChEMBL ID>  (1) 
nan

>  <InChiKey>  (1) 
LMFNLINKCDGRTE-NTSWFWBYSA-N

>  <InChi>  (1) 
InChI=1S/C7H11N3/c8-2-5-1-6(5)7-3-9-4-10-7/h3-6H,1-2,8H2,(H,9,10)/t5-,6+/m0/s1

>  <IUPAC Name>  (1) 
[(1R,2R)-2-(1H-imidazol-5-yl)cyclopropyl]methanamine

$$$$
