
     RDKit          3D

 87 90  0  0  0  0  0  0  0  0999 V2000
    3.3777    3.7642    1.2951 O   0  0  0  0  0  0  0  0  0  0  0  0
    3.3098    2.7069    0.6065 C   0  0  0  0  0  0  0  0  0  0  0  0
    2.0096    2.1711    0.3488 N   0  0  0  0  0  0  0  0  0  0  0  0
    0.8941    2.8937    0.9246 C   0  0  2  0  0  0  0  0  0  0  0  0
   -0.1418    2.0133    1.5150 C   0  0  0  0  0  0  0  0  0  0  0  0
   -1.0792    2.5949    2.1409 O   0  0  0  0  0  0  0  0  0  0  0  0
   -0.1386    0.6019    1.4181 N   0  0  0  0  0  0  0  0  0  0  0  0
   -1.2333   -0.1515    2.0689 C   0  0  1  0  0  0  0  0  0  0  0  0
   -2.1503   -0.6796    1.0685 C   0  0  0  0  0  0  0  0  0  0  0  0
   -1.7998   -0.5822   -0.1608 O   0  0  0  0  0  0  0  0  0  0  0  0
   -3.4064   -1.2891    1.2943 N   0  0  0  0  0  0  0  0  0  0  0  0
   -4.2060   -1.7414    0.1379 C   0  0  1  0  0  0  0  0  0  0  0  0
   -4.8090   -3.0513    0.3785 C   0  0  0  0  0  0  0  0  0  0  0  0
   -5.4762   -3.7056   -0.5000 O   0  0  0  0  0  0  0  0  0  0  0  0
   -4.7109   -3.7399    1.6407 N   0  0  0  0  0  0  0  0  0  0  0  0
   -5.3380   -0.7108    0.0150 C   0  0  0  0  0  0  0  0  0  0  0  0
   -6.2827   -0.9976   -1.1122 C   0  0  0  0  0  0  0  0  0  0  0  0
   -7.3508    0.1012   -1.1954 C   0  0  0  0  0  0  0  0  0  0  0  0
   -8.2622   -0.1664   -2.2723 N   0  0  0  0  0  0  0  0  0  0  0  0
   -9.0083    0.7728   -2.7796 C   0  0  0  0  0  0  0  0  0  0  0  0
   -8.9202    2.1028   -2.2540 N   0  0  0  0  0  0  0  0  0  0  0  0
   -9.8921    0.4408   -3.8480 N   0  0  0  0  0  0  0  0  0  0  0  0
   -0.5836   -1.2089    2.9016 C   0  0  0  0  0  0  0  0  0  0  0  0
   -1.4705   -2.0882    3.6623 C   0  0  0  0  0  0  0  0  0  0  0  0
   -1.8886   -1.6151    4.9178 C   0  0  0  0  0  0  0  0  0  0  0  0
   -2.6936   -2.3839    5.7385 C   0  0  0  0  0  0  0  0  0  0  0  0
   -3.1119   -3.6395    5.3522 C   0  0  0  0  0  0  0  0  0  0  0  0
   -2.7053   -4.1116    4.1199 C   0  0  0  0  0  0  0  0  0  0  0  0
   -1.8895   -3.3405    3.2788 C   0  0  0  0  0  0  0  0  0  0  0  0
    0.1976    3.6254   -0.2267 C   0  0  0  0  0  0  0  0  0  0  0  0
    1.1315    4.5717   -0.8916 C   0  0  0  0  0  0  0  0  0  0  0  0
    1.3375    5.8975   -0.5457 C   0  0  0  0  0  0  0  0  0  0  0  0
    2.2650    6.4368   -1.3737 N   0  0  0  0  0  0  0  0  0  0  0  0
    2.6219    5.4446   -2.2200 C   0  0  0  0  0  0  0  0  0  0  0  0
    1.9482    4.3297   -1.9366 N   0  0  0  0  0  0  0  0  0  0  0  0
    4.5425    2.1172    0.1314 C   0  0  0  0  0  0  0  0  0  0  0  0
    4.6236    1.0079   -0.5843 C   0  0  0  0  0  0  0  0  0  0  0  0
    5.9475    0.5251   -0.9976 C   0  0  0  0  0  0  0  0  0  0  0  0
    6.1183   -0.5801   -1.7068 C   0  0  0  0  0  0  0  0  0  0  0  0
    7.4169   -1.0844   -2.1301 C   0  0  0  0  0  0  0  0  0  0  0  0
    7.4942   -2.2748   -2.8353 C   0  0  0  0  0  0  0  0  0  0  0  0
    8.6759   -2.8250   -3.2714 C   0  0  0  0  0  0  0  0  0  0  0  0
    9.8633   -2.1417   -2.9863 C   0  0  0  0  0  0  0  0  0  0  0  0
    9.8399   -0.9512   -2.2872 C   0  0  0  0  0  0  0  0  0  0  0  0
    8.6088   -0.4457   -1.8718 C   0  0  0  0  0  0  0  0  0  0  0  0
   11.1610   -0.4943   -2.1485 O   0  0  0  0  0  0  0  0  0  0  0  0
   11.9959   -1.6355   -2.3775 C   0  0  0  0  0  0  0  0  0  0  0  0
   11.2008   -2.4238   -3.2796 O   0  0  0  0  0  0  0  0  0  0  0  0
    1.9177    1.3086   -0.2256 H   0  0  0  0  0  0  0  0  0  0  0  0
    1.2535    3.6640    1.6324 H   0  0  0  0  0  0  0  0  0  0  0  0
    0.6216    0.1195    0.8984 H   0  0  0  0  0  0  0  0  0  0  0  0
   -1.7261    0.5844    2.7544 H   0  0  0  0  0  0  0  0  0  0  0  0
   -3.7354   -1.3966    2.2718 H   0  0  0  0  0  0  0  0  0  0  0  0
   -3.6227   -1.7100   -0.7848 H   0  0  0  0  0  0  0  0  0  0  0  0
   -4.9106   -3.1570    2.4748 H   0  0  0  0  0  0  0  0  0  0  0  0
   -4.4525   -4.7644    1.6768 H   0  0  0  0  0  0  0  0  0  0  0  0
   -4.8485    0.2870   -0.0894 H   0  0  0  0  0  0  0  0  0  0  0  0
   -5.9072   -0.6782    0.9678 H   0  0  0  0  0  0  0  0  0  0  0  0
   -6.8103   -1.9599   -0.8739 H   0  0  0  0  0  0  0  0  0  0  0  0
   -5.7187   -1.1202   -2.0408 H   0  0  0  0  0  0  0  0  0  0  0  0
   -6.8016    1.0699   -1.3407 H   0  0  0  0  0  0  0  0  0  0  0  0
   -7.9121    0.0984   -0.2440 H   0  0  0  0  0  0  0  0  0  0  0  0
   -8.9141    2.2842   -1.2118 H   0  0  0  0  0  0  0  0  0  0  0  0
   -8.8579    2.9508   -2.8623 H   0  0  0  0  0  0  0  0  0  0  0  0
  -10.8781    0.8324   -3.8828 H   0  0  0  0  0  0  0  0  0  0  0  0
   -9.5806   -0.2041   -4.6243 H   0  0  0  0  0  0  0  0  0  0  0  0
    0.1108   -0.6629    3.6062 H   0  0  0  0  0  0  0  0  0  0  0  0
    0.1130   -1.8464    2.2886 H   0  0  0  0  0  0  0  0  0  0  0  0
   -1.5751   -0.6260    5.2562 H   0  0  0  0  0  0  0  0  0  0  0  0
   -3.0074   -2.0061    6.6993 H   0  0  0  0  0  0  0  0  0  0  0  0
   -3.7443   -4.2046    6.0298 H   0  0  0  0  0  0  0  0  0  0  0  0
   -3.0275   -5.0979    3.8017 H   0  0  0  0  0  0  0  0  0  0  0  0
   -1.5666   -3.6998    2.3106 H   0  0  0  0  0  0  0  0  0  0  0  0
   -0.6968    4.1190    0.2072 H   0  0  0  0  0  0  0  0  0  0  0  0
   -0.1729    2.8954   -0.9774 H   0  0  0  0  0  0  0  0  0  0  0  0
    0.8150    6.4128    0.2786 H   0  0  0  0  0  0  0  0  0  0  0  0
    3.3528    5.5650   -3.0088 H   0  0  0  0  0  0  0  0  0  0  0  0
    2.0685    3.4426   -2.4680 H   0  0  0  0  0  0  0  0  0  0  0  0
    5.4820    2.6017    0.3680 H   0  0  0  0  0  0  0  0  0  0  0  0
    3.7062    0.5145   -0.8274 H   0  0  0  0  0  0  0  0  0  0  0  0
    6.8293    1.0788   -0.7231 H   0  0  0  0  0  0  0  0  0  0  0  0
    5.2279   -1.1207   -1.9727 H   0  0  0  0  0  0  0  0  0  0  0  0
    6.5431   -2.7815   -3.0388 H   0  0  0  0  0  0  0  0  0  0  0  0
    8.6959   -3.7724   -3.8265 H   0  0  0  0  0  0  0  0  0  0  0  0
    8.6341    0.4729   -1.3368 H   0  0  0  0  0  0  0  0  0  0  0  0
   12.9324   -1.3870   -2.8932 H   0  0  0  0  0  0  0  0  0  0  0  0
   12.1305   -2.1658   -1.4315 H   0  0  0  0  0  0  0  0  0  0  0  0
  1  2  2  0
  2  3  1  0
  3  4  1  0
  4  5  1  0
  5  6  2  0
  5  7  1  0
  7  8  1  0
  8  9  1  0
  9 10  2  0
  9 11  1  0
 11 12  1  0
 12 13  1  0
 13 14  2  0
 13 15  1  0
 12 16  1  0
 16 17  1  0
 17 18  1  0
 18 19  1  0
 19 20  2  3
 20 21  1  0
 20 22  1  0
  8 23  1  0
 23 24  1  0
 24 25  2  0
 25 26  1  0
 26 27  2  0
 27 28  1  0
 28 29  2  0
  4 30  1  0
 30 31  1  0
 31 32  2  0
 32 33  1  0
 33 34  2  0
 34 35  1  0
  2 36  1  0
 36 37  2  0
 37 38  1  0
 38 39  2  0
 39 40  1  0
 40 41  2  0
 41 42  1  0
 42 43  2  0
 43 44  1  0
 44 45  2  0
 44 46  1  0
 46 47  1  0
 47 48  1  0
 29 24  1  0
 35 31  1  0
 45 40  1  0
 48 43  1  0
  3 49  1  0
  4 50  1  1
  7 51  1  0
  8 52  1  1
 11 53  1  0
 12 54  1  6
 15 55  1  0
 15 56  1  0
 16 57  1  0
 16 58  1  0
 17 59  1  0
 17 60  1  0
 18 61  1  0
 18 62  1  0
 21 63  1  0
 21 64  1  0
 22 65  1  0
 22 66  1  0
 23 67  1  0
 23 68  1  0
 25 69  1  0
 26 70  1  0
 27 71  1  0
 28 72  1  0
 29 73  1  0
 30 74  1  0
 30 75  1  0
 32 76  1  0
 34 77  1  0
 35 78  1  0
 36 79  1  0
 37 80  1  0
 38 81  1  0
 39 82  1  0
 41 83  1  0
 42 84  1  0
 45 85  1  0
 47 86  1  0
 47 87  1  0
M  END
>  <Ligand ID>  (1) 
LIG0001394

>  <Ligand>  (1) 
CHEMBL568965

>  <SMILES>  (1) 
O=C(N[C@H](C(=O)N[C@@H](C(=O)N[C@@H](C(=O)N)CCCN=C(N)N)Cc1ccccc1)Cc1cnc[nH]1)/C=C/C=C/c1ccc2c(c1)OCO2

>  <CID>  (1) 
45487298.0

>  <ChEMBL ID>  (1) 
nan

>  <InChiKey>  (1) 
ULZMJZCJOFMASA-IEBLYCLDSA-N

>  <InChi>  (1) 
InChI=1S/C33H39N9O6/c34-30(44)24(10-6-14-38-33(35)36)41-31(45)25(15-21-7-2-1-3-8-21)42-32(46)26(17-23-18-37-19-39-23)40-29(43)11-5-4-9-22-12-13-27-28(16-22)48-20-47-27/h1-5,7-9,11-13,16,18-19,24-26H,6,10,14-15,17,20H2,(H2,34,44)(H,37,39)(H,40,43)(H,41,45)(H,42,46)(H4,35,36,38)/b9-4+,11-5+/t24-,25-,26+/m1/s1

>  <IUPAC Name>  (1) 
(2R)-2-[[(2R)-2-[[(2S)-2-[[(2E,4E)-5-(1,3-benzodioxol-5-yl)penta-2,4-dienoyl]amino]-3-(1H-imidazol-5-yl)propanoyl]amino]-3-phenylpropanoyl]amino]-5-(diaminomethylideneamino)pentanamide

$$$$
