
     RDKit          3D

 58 61  0  0  0  0  0  0  0  0999 V2000
    5.1995    1.9112    1.7471 O   0  0  0  0  0  0  0  0  0  0  0  0
    4.3281    0.7935    1.7907 C   0  0  0  0  0  0  0  0  0  0  0  0
    4.7045   -0.0419    0.5892 C   0  0  0  0  0  0  0  0  0  0  0  0
    3.9435   -1.2376    0.4260 N   0  0  0  0  0  0  0  0  0  0  0  0
    2.5777   -1.3752    0.1368 C   0  0  0  0  0  0  0  0  0  0  0  0
    2.0251   -2.6643    0.0583 C   0  0  0  0  0  0  0  0  0  0  0  0
    0.6996   -2.8787   -0.2297 C   0  0  0  0  0  0  0  0  0  0  0  0
   -0.1241   -1.8283   -0.4496 C   0  0  0  0  0  0  0  0  0  0  0  0
    0.3528   -0.5545   -0.3872 C   0  0  0  0  0  0  0  0  0  0  0  0
    1.6917   -0.3494   -0.0966 C   0  0  0  0  0  0  0  0  0  0  0  0
   -0.5290    0.6380   -0.6226 C   0  0  2  0  0  0  0  0  0  0  0  0
    0.3315    1.7613   -1.1526 C   0  0  0  0  0  0  0  0  0  0  0  0
   -1.1546    0.9579    0.6923 C   0  0  0  0  0  0  0  0  0  0  0  0
   -2.6575    0.8503    0.6265 C   0  0  0  0  0  0  0  0  0  0  0  0
   -3.1187   -0.3172   -0.0094 N   0  0  0  0  0  0  0  0  0  0  0  0
   -2.4033   -0.8461   -1.0972 C   0  0  2  0  0  0  0  0  0  0  0  0
   -1.5360   -2.0298   -0.7574 C   0  0  0  0  0  0  0  0  0  0  0  0
   -2.0334   -3.2054   -0.7395 O   0  0  0  0  0  0  0  0  0  0  0  0
   -1.5237    0.2339   -1.6878 C   0  0  2  0  0  0  0  0  0  0  0  0
   -0.8105   -0.3121   -2.9103 C   0  0  0  0  0  0  0  0  0  0  0  0
   -4.4120   -0.7927    0.2703 C   0  0  0  0  0  0  0  0  0  0  0  0
   -5.5215    0.1014   -0.2484 C   0  0  0  0  0  0  0  0  0  0  0  0
   -5.6925    1.4919    0.1701 C   0  0  0  0  0  0  0  0  0  0  0  0
   -6.6928    0.4414    0.6321 C   0  0  0  0  0  0  0  0  0  0  0  0
    6.1910   -0.3625    0.7943 C   0  0  0  0  0  0  0  0  0  0  0  0
    4.5534    0.8198   -0.6444 C   0  0  0  0  0  0  0  0  0  0  0  0
    4.7984    2.6855    2.1769 H   0  0  0  0  0  0  0  0  0  0  0  0
    3.3222    1.1717    1.7605 H   0  0  0  0  0  0  0  0  0  0  0  0
    4.5934    0.2756    2.7431 H   0  0  0  0  0  0  0  0  0  0  0  0
    4.4900   -2.1514    0.5394 H   0  0  0  0  0  0  0  0  0  0  0  0
    2.6363   -3.5431    0.2259 H   0  0  0  0  0  0  0  0  0  0  0  0
    0.3134   -3.8904   -0.2801 H   0  0  0  0  0  0  0  0  0  0  0  0
    2.0297    0.6538   -0.0677 H   0  0  0  0  0  0  0  0  0  0  0  0
    0.7534    2.3071   -0.3050 H   0  0  0  0  0  0  0  0  0  0  0  0
   -0.3059    2.4350   -1.7485 H   0  0  0  0  0  0  0  0  0  0  0  0
    1.1335    1.3072   -1.7748 H   0  0  0  0  0  0  0  0  0  0  0  0
   -0.8662    2.0056    0.9389 H   0  0  0  0  0  0  0  0  0  0  0  0
   -0.7325    0.3591    1.5477 H   0  0  0  0  0  0  0  0  0  0  0  0
   -3.1017    0.9909    1.6366 H   0  0  0  0  0  0  0  0  0  0  0  0
   -2.9822    1.7361    0.0057 H   0  0  0  0  0  0  0  0  0  0  0  0
   -3.1088   -1.2020   -1.8999 H   0  0  0  0  0  0  0  0  0  0  0  0
   -2.1407    1.0999   -2.0104 H   0  0  0  0  0  0  0  0  0  0  0  0
   -1.1646   -1.3573   -3.1228 H   0  0  0  0  0  0  0  0  0  0  0  0
    0.2836   -0.2774   -2.7417 H   0  0  0  0  0  0  0  0  0  0  0  0
   -1.0299    0.3076   -3.8024 H   0  0  0  0  0  0  0  0  0  0  0  0
   -4.5291   -1.7849   -0.2511 H   0  0  0  0  0  0  0  0  0  0  0  0
   -4.6334   -1.0061    1.3390 H   0  0  0  0  0  0  0  0  0  0  0  0
   -5.8601   -0.1018   -1.3115 H   0  0  0  0  0  0  0  0  0  0  0  0
   -6.0347    2.2595   -0.5821 H   0  0  0  0  0  0  0  0  0  0  0  0
   -5.1834    1.9740    1.0194 H   0  0  0  0  0  0  0  0  0  0  0  0
   -7.6928    0.5873    0.2196 H   0  0  0  0  0  0  0  0  0  0  0  0
   -6.6949    0.1148    1.6819 H   0  0  0  0  0  0  0  0  0  0  0  0
    6.6917    0.4178    1.4001 H   0  0  0  0  0  0  0  0  0  0  0  0
    6.2936   -1.3489    1.3087 H   0  0  0  0  0  0  0  0  0  0  0  0
    6.7032   -0.4006   -0.1877 H   0  0  0  0  0  0  0  0  0  0  0  0
    4.1119    1.7844   -0.3406 H   0  0  0  0  0  0  0  0  0  0  0  0
    5.5743    1.0659   -1.0252 H   0  0  0  0  0  0  0  0  0  0  0  0
    3.9434    0.3202   -1.4268 H   0  0  0  0  0  0  0  0  0  0  0  0
  1  2  1  0
  2  3  1  0
  3  4  1  0
  4  5  1  0
  5  6  2  0
  6  7  1  0
  7  8  2  0
  8  9  1  0
  9 10  2  0
  9 11  1  0
 11 12  1  6
 11 13  1  0
 13 14  1  0
 14 15  1  0
 15 16  1  0
 16 17  1  0
 17 18  2  0
 16 19  1  0
 19 20  1  0
 15 21  1  0
 21 22  1  0
 22 23  1  0
 23 24  1  0
  3 25  1  0
  3 26  1  0
 10  5  1  0
 19 11  1  0
 24 22  1  0
 17  8  1  0
  1 27  1  0
  2 28  1  0
  2 29  1  0
  4 30  1  0
  6 31  1  0
  7 32  1  0
 10 33  1  0
 12 34  1  0
 12 35  1  0
 12 36  1  0
 13 37  1  0
 13 38  1  0
 14 39  1  0
 14 40  1  0
 16 41  1  6
 19 42  1  6
 20 43  1  0
 20 44  1  0
 20 45  1  0
 21 46  1  0
 21 47  1  0
 22 48  1  0
 23 49  1  0
 23 50  1  0
 24 51  1  0
 24 52  1  0
 25 53  1  0
 25 54  1  0
 25 55  1  0
 26 56  1  0
 26 57  1  0
 26 58  1  0
M  END
>  <Ligand ID>  (1) 
LIG0005481

>  <Ligand>  (1) 
SCHEMBL16774763

>  <SMILES>  (1) 
OCC(Nc1ccc2c(c1)[C@]1(C)CCN([C@H](C2=O)[C@@H]1C)CC1CC1)(C)C

>  <CID>  (1) 
118123767.0

>  <ChEMBL ID>  (1) 
nan

>  <InChiKey>  (1) 
QQYFZOOTKZHQPE-OSGPJOMKSA-N

>  <InChi>  (1) 
InChI=1S/C22H32N2O2/c1-14-19-20(26)17-8-7-16(23-21(2,3)13-25)11-18(17)22(14,4)9-10-24(19)12-15-5-6-15/h7-8,11,14-15,19,23,25H,5-6,9-10,12-13H2,1-4H3/t14-,19-,22+/m0/s1

>  <IUPAC Name>  (1) 
(1R,9S,13R)-10-(cyclopropylmethyl)-4-[(1-hydroxy-2-methylpropan-2-yl)amino]-1,13-dimethyl-10-azatricyclo[7.3.1.02,7]trideca-2(7),3,5-trien-8-one

$$$$
