
     RDKit          3D

 14 14  0  0  0  0  0  0  0  0999 V2000
    2.7650    1.6181    0.2758 O   0  0  0  0  0  0  0  0  0  0  0  0
    2.2736    0.3271    0.0186 C   0  0  0  0  0  0  0  0  0  0  0  0
    3.1288   -0.5737   -0.1869 O   0  0  0  0  0  0  0  0  0  0  0  0
    0.8512    0.1375    0.0101 C   0  0  0  0  0  0  0  0  0  0  0  0
    0.3548   -1.1384   -0.2439 C   0  0  0  0  0  0  0  0  0  0  0  0
   -1.0222   -1.3729   -0.2627 C   0  0  0  0  0  0  0  0  0  0  0  0
   -1.8668   -0.3015   -0.0221 C   0  0  0  0  0  0  0  0  0  0  0  0
   -1.3984    0.9731    0.2322 C   0  0  0  0  0  0  0  0  0  0  0  0
   -0.0475    1.1808    0.2460 C   0  0  0  0  0  0  0  0  0  0  0  0
    1.0471   -1.9567   -0.4287 H   0  0  0  0  0  0  0  0  0  0  0  0
   -1.4030   -2.3680   -0.4609 H   0  0  0  0  0  0  0  0  0  0  0  0
   -2.9377   -0.4703   -0.0339 H   0  0  0  0  0  0  0  0  0  0  0  0
   -2.1014    1.7742    0.4137 H   0  0  0  0  0  0  0  0  0  0  0  0
    0.3565    2.1708    0.4427 H   0  0  0  0  0  0  0  0  0  0  0  0
  1  2  1  0
  2  3  2  0
  2  4  1  0
  4  5  2  0
  5  6  1  0
  6  7  2  0
  7  8  1  0
  8  9  2  0
  9  4  1  0
  5 10  1  0
  6 11  1  0
  7 12  1  0
  8 13  1  0
  9 14  1  0
M  CHG  1   1  -1
M  END
>  <Ligand ID>  (1) 
LIG0000715

>  <Ligand>  (1) 
benzoate

>  <SMILES>  (1) 
[O-]C(=O)c1ccccc1

>  <CID>  (1) 
242.0

>  <ChEMBL ID>  (1) 
nan

>  <InChiKey>  (1) 
WPYMKLBDIGXBTP-UHFFFAOYSA-M

>  <InChi>  (1) 
InChI=1S/C7H6O2/c8-7(9)6-4-2-1-3-5-6/h1-5H,(H,8,9)/p-1

>  <IUPAC Name>  (1) 
benzoate

$$$$
