
     RDKit          3D

 26 26  0  0  0  0  0  0  0  0999 V2000
   -3.1843   -0.1237    0.8729 C   0  0  0  0  0  0  0  0  0  0  0  0
   -1.6822   -0.0387    1.1757 C   0  0  0  0  0  0  0  0  0  0  0  0
   -0.9442   -0.7745    0.0832 C   0  0  0  0  0  0  0  0  0  0  0  0
    0.5241   -0.7519    0.2825 C   0  0  0  0  0  0  0  0  0  0  0  0
    1.1033   -1.7487    0.9957 N   0  0  0  0  0  0  0  0  0  0  0  0
    2.4351   -1.7368    1.1818 C   0  0  0  0  0  0  0  0  0  0  0  0
    3.2643   -0.7536    0.6819 C   0  0  0  0  0  0  0  0  0  0  0  0
    2.6770    0.2295   -0.0238 N   0  0  0  0  0  0  0  0  0  0  0  0
    1.3343    0.2580   -0.2370 C   0  0  0  0  0  0  0  0  0  0  0  0
    0.7190    1.2679   -0.9636 O   0  0  0  0  0  0  0  0  0  0  0  0
    1.5524    2.2861   -1.4849 C   0  0  0  0  0  0  0  0  0  0  0  0
   -1.2603   -0.2641   -1.2795 C   0  0  0  0  0  0  0  0  0  0  0  0
   -3.7847   -0.0828    1.8176 H   0  0  0  0  0  0  0  0  0  0  0  0
   -3.5312    0.7238    0.2615 H   0  0  0  0  0  0  0  0  0  0  0  0
   -3.4197   -1.1182    0.4143 H   0  0  0  0  0  0  0  0  0  0  0  0
   -1.5611   -0.5278    2.1473 H   0  0  0  0  0  0  0  0  0  0  0  0
   -1.4190    1.0223    1.1279 H   0  0  0  0  0  0  0  0  0  0  0  0
   -1.2704   -1.8329    0.1457 H   0  0  0  0  0  0  0  0  0  0  0  0
    2.9064   -2.5242    1.7472 H   0  0  0  0  0  0  0  0  0  0  0  0
    4.3369   -0.7398    0.8291 H   0  0  0  0  0  0  0  0  0  0  0  0
    2.2586    1.8323   -2.2204 H   0  0  0  0  0  0  0  0  0  0  0  0
    2.1295    2.7563   -0.6452 H   0  0  0  0  0  0  0  0  0  0  0  0
    0.9762    3.1131   -1.9380 H   0  0  0  0  0  0  0  0  0  0  0  0
   -1.5484    0.8196   -1.2907 H   0  0  0  0  0  0  0  0  0  0  0  0
   -2.1527   -0.8392   -1.6641 H   0  0  0  0  0  0  0  0  0  0  0  0
   -0.4588   -0.4521   -2.0171 H   0  0  0  0  0  0  0  0  0  0  0  0
  1  2  1  0
  2  3  1  0
  3  4  1  0
  4  5  2  0
  5  6  1  0
  6  7  2  0
  7  8  1  0
  8  9  2  0
  9 10  1  0
 10 11  1  0
  3 12  1  0
  9  4  1  0
  1 13  1  0
  1 14  1  0
  1 15  1  0
  2 16  1  0
  2 17  1  0
  3 18  1  0
  6 19  1  0
  7 20  1  0
 11 21  1  0
 11 22  1  0
 11 23  1  0
 12 24  1  0
 12 25  1  0
 12 26  1  0
M  END
>  <Ligand ID>  (1) 
LIG0000742

>  <Ligand>  (1) 
2-Methoxy-3-(1-methylpropyl)pyrazine

>  <SMILES>  (1) 
CCC(c1nccnc1OC)C

>  <CID>  (1) 
520098.0

>  <ChEMBL ID>  (1) 
nan

>  <InChiKey>  (1) 
QMQDJVIJVPEQHE-UHFFFAOYSA-N

>  <InChi>  (1) 
InChI=1S/C9H14N2O/c1-4-7(2)8-9(12-3)11-6-5-10-8/h5-7H,4H2,1-3H3

>  <IUPAC Name>  (1) 
2-butan-2-yl-3-methoxypyrazine

$$$$
