
     RDKit          3D

 28 30  0  0  0  0  0  0  0  0999 V2000
    4.8751    0.5949    0.6363 C   0  0  0  0  0  0  0  0  0  0  0  0
    3.3791    0.4858    0.5119 C   0  0  0  0  0  0  0  0  0  0  0  0
    2.5410    1.2034    1.3719 C   0  0  0  0  0  0  0  0  0  0  0  0
    1.2103    1.0684    1.2159 N   0  0  0  0  0  0  0  0  0  0  0  0
    0.6464    0.2823    0.2798 C   0  0  0  0  0  0  0  0  0  0  0  0
    1.4289   -0.4474   -0.5943 C   0  0  0  0  0  0  0  0  0  0  0  0
    2.8074   -0.3284   -0.4577 C   0  0  0  0  0  0  0  0  0  0  0  0
    0.8839   -1.2654   -1.5687 C   0  0  0  0  0  0  0  0  0  0  0  0
   -0.4878   -1.3235   -1.6326 C   0  0  0  0  0  0  0  0  0  0  0  0
   -1.3109   -0.6141   -0.7825 C   0  0  0  0  0  0  0  0  0  0  0  0
   -0.7361    0.2061    0.1944 C   0  0  0  0  0  0  0  0  0  0  0  0
   -1.5060    0.9211    1.0508 N   0  0  0  0  0  0  0  0  0  0  0  0
   -2.8583    0.8272    0.9441 C   0  0  0  0  0  0  0  0  0  0  0  0
   -3.4473    0.0142   -0.0241 C   0  0  0  0  0  0  0  0  0  0  0  0
   -2.6824   -0.7221   -0.9059 C   0  0  0  0  0  0  0  0  0  0  0  0
   -4.9377   -0.0021   -0.0376 C   0  0  0  0  0  0  0  0  0  0  0  0
    5.2765   -0.4075    0.3202 H   0  0  0  0  0  0  0  0  0  0  0  0
    5.1778    0.8642    1.6523 H   0  0  0  0  0  0  0  0  0  0  0  0
    5.1955    1.3367   -0.1328 H   0  0  0  0  0  0  0  0  0  0  0  0
    2.9962    1.8349    2.1238 H   0  0  0  0  0  0  0  0  0  0  0  0
    3.4953   -0.8669   -1.1033 H   0  0  0  0  0  0  0  0  0  0  0  0
    1.5345   -1.8331   -2.2488 H   0  0  0  0  0  0  0  0  0  0  0  0
   -0.9450   -1.9661   -2.3978 H   0  0  0  0  0  0  0  0  0  0  0  0
   -3.4298    1.4013    1.6317 H   0  0  0  0  0  0  0  0  0  0  0  0
   -3.1609   -1.3426   -1.6447 H   0  0  0  0  0  0  0  0  0  0  0  0
   -5.3175    1.0400   -0.2447 H   0  0  0  0  0  0  0  0  0  0  0  0
   -5.2473   -0.6184   -0.9098 H   0  0  0  0  0  0  0  0  0  0  0  0
   -5.3808   -0.3428    0.9199 H   0  0  0  0  0  0  0  0  0  0  0  0
  1  2  1  0
  2  3  2  0
  3  4  1  0
  4  5  2  0
  5  6  1  0
  6  7  2  0
  6  8  1  0
  8  9  2  0
  9 10  1  0
 10 11  2  0
 11 12  1  0
 12 13  2  0
 13 14  1  0
 14 15  2  0
 14 16  1  0
  7  2  1  0
 15 10  1  0
 11  5  1  0
  1 17  1  0
  1 18  1  0
  1 19  1  0
  3 20  1  0
  7 21  1  0
  8 22  1  0
  9 23  1  0
 13 24  1  0
 15 25  1  0
 16 26  1  0
 16 27  1  0
 16 28  1  0
M  END
>  <Ligand ID>  (1) 
LIG0003908

>  <Ligand>  (1) 
CHEMBL2205809

>  <SMILES>  (1) 
Cc1cnc2c(c1)ccc1c2ncc(c1)C

>  <CID>  (1) 
12987698.0

>  <ChEMBL ID>  (1) 
nan

>  <InChiKey>  (1) 
KSACKJIWQPGKMJ-UHFFFAOYSA-N

>  <InChi>  (1) 
InChI=1S/C14H12N2/c1-9-5-11-3-4-12-6-10(2)8-16-14(12)13(11)15-7-9/h3-8H,1-2H3

>  <IUPAC Name>  (1) 
3,8-dimethyl-1,10-phenanthroline

$$$$
