
     RDKit          3D

 38 39  0  0  0  0  0  0  0  0999 V2000
   -4.6464   -1.6396    0.3879 C   0  0  0  0  0  0  0  0  0  0  0  0
   -3.8537   -1.0983   -0.7780 C   0  0  0  0  0  0  0  0  0  0  0  0
   -2.9854   -0.0604   -0.3798 O   0  0  0  0  0  0  0  0  0  0  0  0
   -1.6074   -0.1928   -0.6175 C   0  0  0  0  0  0  0  0  0  0  0  0
   -1.2726   -1.2514   -1.1769 O   0  0  0  0  0  0  0  0  0  0  0  0
   -0.7624    0.8874   -0.1957 C   0  0  0  0  0  0  0  0  0  0  0  0
   -1.3306    1.9914    0.4231 C   0  0  0  0  0  0  0  0  0  0  0  0
   -0.6126    3.0753    0.8673 C   0  0  0  0  0  0  0  0  0  0  0  0
    0.7400    3.1080    0.7101 C   0  0  0  0  0  0  0  0  0  0  0  0
    1.3367    2.0189    0.0947 C   0  0  0  0  0  0  0  0  0  0  0  0
    0.6114    0.9254   -0.3529 C   0  0  0  0  0  0  0  0  0  0  0  0
    1.3150   -0.1294   -0.9903 N   0  0  0  0  0  0  0  0  0  0  0  0
    2.7602   -0.1390   -1.1557 C   0  0  0  0  0  0  0  0  0  0  0  0
    3.4161   -0.3261    0.1710 C   0  0  0  0  0  0  0  0  0  0  0  0
    4.3472    0.3565    0.7387 N   0  0  0  0  0  0  0  0  0  0  0  0
    4.6646   -0.1996    2.0272 C   0  0  0  0  0  0  0  0  0  0  0  0
    4.2008   -1.6286    1.8946 C   0  0  0  0  0  0  0  0  0  0  0  0
    3.0333   -1.4301    1.0226 N   0  0  0  0  0  0  0  0  0  0  0  0
   -4.7545   -0.5392   -1.8584 C   0  0  0  0  0  0  0  0  0  0  0  0
   -4.6187   -0.9478    1.2563 H   0  0  0  0  0  0  0  0  0  0  0  0
   -5.6984   -1.8498    0.1240 H   0  0  0  0  0  0  0  0  0  0  0  0
   -4.1860   -2.5968    0.7065 H   0  0  0  0  0  0  0  0  0  0  0  0
   -3.2956   -1.9277   -1.2534 H   0  0  0  0  0  0  0  0  0  0  0  0
   -2.4091    2.0394    0.5849 H   0  0  0  0  0  0  0  0  0  0  0  0
   -1.1141    3.9122    1.3457 H   0  0  0  0  0  0  0  0  0  0  0  0
    1.3313    3.9424    1.0472 H   0  0  0  0  0  0  0  0  0  0  0  0
    2.4003    2.0747   -0.0274 H   0  0  0  0  0  0  0  0  0  0  0  0
    0.8332   -0.9726   -1.3844 H   0  0  0  0  0  0  0  0  0  0  0  0
    3.0477   -0.8893   -1.9037 H   0  0  0  0  0  0  0  0  0  0  0  0
    3.0854    0.8569   -1.5317 H   0  0  0  0  0  0  0  0  0  0  0  0
    4.1926    0.3300    2.8734 H   0  0  0  0  0  0  0  0  0  0  0  0
    5.7723   -0.2040    2.1472 H   0  0  0  0  0  0  0  0  0  0  0  0
    3.7971   -1.9882    2.8644 H   0  0  0  0  0  0  0  0  0  0  0  0
    4.9486   -2.2836    1.4462 H   0  0  0  0  0  0  0  0  0  0  0  0
    2.1484   -1.9643    1.0281 H   0  0  0  0  0  0  0  0  0  0  0  0
   -5.6195   -0.0627   -1.3766 H   0  0  0  0  0  0  0  0  0  0  0  0
   -4.1293    0.1478   -2.4641 H   0  0  0  0  0  0  0  0  0  0  0  0
   -5.0856   -1.3453   -2.5520 H   0  0  0  0  0  0  0  0  0  0  0  0
  1  2  1  0
  2  3  1  0
  3  4  1  0
  4  5  2  0
  4  6  1  0
  6  7  2  0
  7  8  1  0
  8  9  2  0
  9 10  1  0
 10 11  2  0
 11 12  1  0
 12 13  1  0
 13 14  1  0
 14 15  2  0
 15 16  1  0
 16 17  1  0
 17 18  1  0
  2 19  1  0
 11  6  1  0
 18 14  1  0
  1 20  1  0
  1 21  1  0
  1 22  1  0
  2 23  1  0
  7 24  1  0
  8 25  1  0
  9 26  1  0
 10 27  1  0
 12 28  1  0
 13 29  1  0
 13 30  1  0
 16 31  1  0
 16 32  1  0
 17 33  1  0
 17 34  1  0
 18 35  1  0
 19 36  1  0
 19 37  1  0
 19 38  1  0
M  END
>  <Ligand ID>  (1) 
LIG0003491

>  <Ligand>  (1) 
CHEMBL319553

>  <SMILES>  (1) 
CC(OC(=O)c1ccccc1NCC1=NCCN1)C

>  <CID>  (1) 
44329797.0

>  <ChEMBL ID>  (1) 
nan

>  <InChiKey>  (1) 
OZXBSTCCARQDBM-UHFFFAOYSA-N

>  <InChi>  (1) 
InChI=1S/C14H19N3O2/c1-10(2)19-14(18)11-5-3-4-6-12(11)17-9-13-15-7-8-16-13/h3-6,10,17H,7-9H2,1-2H3,(H,15,16)

>  <IUPAC Name>  (1) 
propan-2-yl 2-(4,5-dihydro-1H-imidazol-2-ylmethylamino)benzoate

$$$$
