
     RDKit          3D

 79 82  0  0  0  0  0  0  0  0999 V2000
    6.5184   -2.3851   -0.6475 C   0  0  0  0  0  0  0  0  0  0  0  0
    5.9418   -1.3476    0.2847 C   0  0  0  0  0  0  0  0  0  0  0  0
    5.3993   -0.1902   -0.5803 C   0  0  1  0  0  0  0  0  0  0  0  0
    4.8229    0.8381    0.3138 C   0  0  0  0  0  0  0  0  0  0  0  0
    5.7540    1.6342    0.9958 C   0  0  0  0  0  0  0  0  0  0  0  0
    5.3624    2.5991    1.9006 C   0  0  0  0  0  0  0  0  0  0  0  0
    6.5498    3.5754    2.7340 Cl  0  0  0  0  0  0  0  0  0  0  0  0
    4.0171    2.7525    2.1105 C   0  0  0  0  0  0  0  0  0  0  0  0
    3.0913    1.9687    1.4384 C   0  0  0  0  0  0  0  0  0  0  0  0
    3.4571    0.9920    0.5232 C   0  0  0  0  0  0  0  0  0  0  0  0
    2.4557    0.2085   -0.2133 C   0  0  0  0  0  0  0  0  0  0  0  0
    1.2319    0.9696   -0.6393 C   0  0  0  0  0  0  0  0  0  0  0  0
   -0.0110    0.6892    0.1654 C   0  0  0  0  0  0  0  0  0  0  0  0
   -0.3419   -0.7123    0.0787 N   0  0  0  0  0  0  0  0  0  0  0  0
    0.7596   -1.6116   -0.2838 C   0  0  0  0  0  0  0  0  0  0  0  0
    2.0391   -1.0840    0.4171 C   0  0  0  0  0  0  0  0  0  0  0  0
   -1.5879   -1.2984    0.3389 C   0  0  0  0  0  0  0  0  0  0  0  0
   -1.7501   -2.5690    0.1997 O   0  0  0  0  0  0  0  0  0  0  0  0
   -2.8123   -0.5754    0.7874 C   0  0  2  0  0  0  0  0  0  0  0  0
   -3.9283   -1.5787    1.0584 C   0  0  0  0  0  0  0  0  0  0  0  0
   -4.7424   -1.6506   -0.1045 N   0  0  0  0  0  0  0  0  0  0  0  0
   -4.7031   -0.3577   -0.7112 C   0  0  0  0  0  0  0  0  0  0  0  0
   -3.4147    0.3035   -0.2527 C   0  0  1  0  0  0  0  0  0  0  0  0
   -3.6078    1.6994    0.1200 C   0  0  0  0  0  0  0  0  0  0  0  0
   -3.4628    2.6610   -0.8819 C   0  0  0  0  0  0  0  0  0  0  0  0
   -3.6307    4.0064   -0.6406 C   0  0  0  0  0  0  0  0  0  0  0  0
   -3.9543    4.4729    0.6204 C   0  0  0  0  0  0  0  0  0  0  0  0
   -4.1031    3.5378    1.6302 C   0  0  0  0  0  0  0  0  0  0  0  0
   -3.9287    2.1773    1.3658 C   0  0  0  0  0  0  0  0  0  0  0  0
   -4.0964    1.3501    2.4166 F   0  0  0  0  0  0  0  0  0  0  0  0
   -4.1778    6.3341    0.9245 Br  0  0  0  0  0  0  0  0  0  0  0  0
   -6.0642   -2.1480    0.0672 C   0  0  0  0  0  0  0  0  0  0  0  0
   -6.9578   -1.3634    0.9691 C   0  0  0  0  0  0  0  0  0  0  0  0
   -6.7414   -2.2058   -1.3106 C   0  0  0  0  0  0  0  0  0  0  0  0
   -6.0608   -3.5759    0.5825 C   0  0  0  0  0  0  0  0  0  0  0  0
    6.5793    0.2911   -1.3050 N   0  0  0  0  0  0  0  0  0  0  0  0
    6.6307    0.0978   -2.7246 C   0  0  0  0  0  0  0  0  0  0  0  0
    5.6875   -0.4730   -3.3572 O   0  0  0  0  0  0  0  0  0  0  0  0
    7.8438    0.5909   -3.4675 C   0  0  0  0  0  0  0  0  0  0  0  0
    5.8362   -2.4917   -1.5093 H   0  0  0  0  0  0  0  0  0  0  0  0
    7.5226   -2.0332   -0.9706 H   0  0  0  0  0  0  0  0  0  0  0  0
    6.5447   -3.3845   -0.1606 H   0  0  0  0  0  0  0  0  0  0  0  0
    6.6886   -0.9639    1.0068 H   0  0  0  0  0  0  0  0  0  0  0  0
    5.0617   -1.7953    0.7790 H   0  0  0  0  0  0  0  0  0  0  0  0
    4.7020   -0.6905   -1.2523 H   0  0  0  0  0  0  0  0  0  0  0  0
    6.8201    1.5268    0.8528 H   0  0  0  0  0  0  0  0  0  0  0  0
    3.7051    3.5057    2.8169 H   0  0  0  0  0  0  0  0  0  0  0  0
    2.0594    2.1829    1.6784 H   0  0  0  0  0  0  0  0  0  0  0  0
    2.9027   -0.1274   -1.2241 H   0  0  0  0  0  0  0  0  0  0  0  0
    1.0483    0.7343   -1.7317 H   0  0  0  0  0  0  0  0  0  0  0  0
    1.4204    2.0717   -0.6725 H   0  0  0  0  0  0  0  0  0  0  0  0
    0.1777    0.9914    1.2176 H   0  0  0  0  0  0  0  0  0  0  0  0
   -0.8072    1.3291   -0.2919 H   0  0  0  0  0  0  0  0  0  0  0  0
    0.5739   -2.6013    0.1723 H   0  0  0  0  0  0  0  0  0  0  0  0
    0.8955   -1.7388   -1.3528 H   0  0  0  0  0  0  0  0  0  0  0  0
    1.7400   -0.9675    1.4739 H   0  0  0  0  0  0  0  0  0  0  0  0
    2.7568   -1.9246    0.2410 H   0  0  0  0  0  0  0  0  0  0  0  0
   -2.5507   -0.1124    1.7386 H   0  0  0  0  0  0  0  0  0  0  0  0
   -4.5031   -1.2166    1.9234 H   0  0  0  0  0  0  0  0  0  0  0  0
   -3.5034   -2.5598    1.3672 H   0  0  0  0  0  0  0  0  0  0  0  0
   -5.5945    0.1975   -0.3596 H   0  0  0  0  0  0  0  0  0  0  0  0
   -4.7661   -0.4809   -1.8095 H   0  0  0  0  0  0  0  0  0  0  0  0
   -2.7306    0.2157   -1.1563 H   0  0  0  0  0  0  0  0  0  0  0  0
   -3.2083    2.3796   -1.9039 H   0  0  0  0  0  0  0  0  0  0  0  0
   -3.5150    4.7405   -1.4339 H   0  0  0  0  0  0  0  0  0  0  0  0
   -4.3613    3.8613    2.6488 H   0  0  0  0  0  0  0  0  0  0  0  0
   -7.5519   -0.6008    0.3835 H   0  0  0  0  0  0  0  0  0  0  0  0
   -7.7657   -2.0472    1.3627 H   0  0  0  0  0  0  0  0  0  0  0  0
   -6.4929   -0.9340    1.8538 H   0  0  0  0  0  0  0  0  0  0  0  0
   -6.1564   -2.8965   -1.9460 H   0  0  0  0  0  0  0  0  0  0  0  0
   -7.7645   -2.6406   -1.1990 H   0  0  0  0  0  0  0  0  0  0  0  0
   -6.8093   -1.2029   -1.7476 H   0  0  0  0  0  0  0  0  0  0  0  0
   -6.9618   -4.1001    0.1912 H   0  0  0  0  0  0  0  0  0  0  0  0
   -5.1822   -4.1570    0.2784 H   0  0  0  0  0  0  0  0  0  0  0  0
   -6.1752   -3.5875    1.7036 H   0  0  0  0  0  0  0  0  0  0  0  0
    7.3808    0.7545   -0.8728 H   0  0  0  0  0  0  0  0  0  0  0  0
    7.9668    0.0880   -4.4288 H   0  0  0  0  0  0  0  0  0  0  0  0
    7.8308    1.6730   -3.6212 H   0  0  0  0  0  0  0  0  0  0  0  0
    8.7013    0.3802   -2.7664 H   0  0  0  0  0  0  0  0  0  0  0  0
  1  2  1  0
  2  3  1  0
  3  4  1  0
  4  5  2  0
  5  6  1  0
  6  7  1  0
  6  8  2  0
  8  9  1  0
  9 10  2  0
 10 11  1  0
 11 12  1  0
 12 13  1  0
 13 14  1  0
 14 15  1  0
 15 16  1  0
 14 17  1  0
 17 18  2  0
 17 19  1  0
 19 20  1  0
 20 21  1  0
 21 22  1  0
 22 23  1  0
 23 24  1  0
 24 25  2  0
 25 26  1  0
 26 27  2  0
 27 28  1  0
 28 29  2  0
 29 30  1  0
 27 31  1  0
 21 32  1  0
 32 33  1  0
 32 34  1  0
 32 35  1  0
  3 36  1  0
 36 37  1  0
 37 38  2  0
 37 39  1  0
 10  4  1  0
 16 11  1  0
 23 19  1  0
 29 24  1  0
  1 40  1  0
  1 41  1  0
  1 42  1  0
  2 43  1  0
  2 44  1  0
  3 45  1  6
  5 46  1  0
  8 47  1  0
  9 48  1  0
 11 49  1  0
 12 50  1  0
 12 51  1  0
 13 52  1  0
 13 53  1  0
 15 54  1  0
 15 55  1  0
 16 56  1  0
 16 57  1  0
 19 58  1  1
 20 59  1  0
 20 60  1  0
 22 61  1  0
 22 62  1  0
 23 63  1  6
 25 64  1  0
 26 65  1  0
 28 66  1  0
 33 67  1  0
 33 68  1  0
 33 69  1  0
 34 70  1  0
 34 71  1  0
 34 72  1  0
 35 73  1  0
 35 74  1  0
 35 75  1  0
 36 76  1  0
 39 77  1  0
 39 78  1  0
 39 79  1  0
M  END
>  <Ligand ID>  (1) 
LIG0001551

>  <Ligand>  (1) 
CHEMBL429854

>  <SMILES>  (1) 
CC[C@@H](c1cc(Cl)ccc1C1CCN(CC1)C(=O)[C@@H]1CN(C[C@H]1c1ccc(cc1F)Br)C(C)(C)C)NC(=O)C

>  <CID>  (1) 
44448629.0

>  <ChEMBL ID>  (1) 
nan

>  <InChiKey>  (1) 
MIAUOPQGTJQSKK-GKRYNVPLSA-N

>  <InChi>  (1) 
InChI=1S/C31H40BrClFN3O2/c1-6-29(35-19(2)38)25-16-22(33)8-10-23(25)20-11-13-36(14-12-20)30(39)27-18-37(31(3,4)5)17-26(27)24-9-7-21(32)15-28(24)34/h7-10,15-16,20,26-27,29H,6,11-14,17-18H2,1-5H3,(H,35,38)/t26-,27+,29-/m0/s1

>  <IUPAC Name>  (1) 
N-[(1S)-1-[2-[1-[(3S,4R)-4-(4-bromo-2-fluorophenyl)-1-tert-butylpyrrolidine-3-carbonyl]piperidin-4-yl]-5-chlorophenyl]propyl]acetamide

$$$$
