
     RDKit          3D

 63 68  0  0  0  0  0  0  0  0999 V2000
    5.6027    1.1020   -0.9923 C   0  0  0  0  0  0  0  0  0  0  0  0
    4.3355    0.6163   -1.7028 C   0  0  0  0  0  0  0  0  0  0  0  0
    3.3712    0.2560   -0.5563 C   0  0  0  0  0  0  0  0  0  0  0  0
    2.0661   -0.2415   -1.1103 C   0  0  1  0  0  0  0  0  0  0  0  0
    1.1236   -0.6330   -0.0546 C   0  0  2  0  0  0  0  0  0  0  0  0
   -0.2152   -1.1324   -0.6284 C   0  0  0  0  0  0  0  0  0  0  0  0
   -1.2217   -1.0930    0.4718 C   0  0  0  0  0  0  0  0  0  0  0  0
   -0.6184   -1.5672    1.7608 C   0  0  0  0  0  0  0  0  0  0  0  0
    0.4110   -0.7997    2.1895 C   0  0  0  0  0  0  0  0  0  0  0  0
    0.8824    0.2206    1.1233 C   0  0  1  0  0  0  0  0  0  0  0  0
    2.0486    0.7190    1.6734 O   0  0  0  0  0  0  0  0  0  0  0  0
    1.8989    1.5207    2.7716 C   0  0  0  0  0  0  0  0  0  0  0  0
   -0.2476    1.1629    1.0988 C   0  0  2  0  0  0  0  0  0  0  0  0
   -1.4916    0.3935    0.7289 C   0  0  0  0  0  0  0  0  0  0  0  0
   -2.5636    0.5370    1.7244 C   0  0  0  0  0  0  0  0  0  0  0  0
   -3.1955   -0.7103    2.2538 C   0  0  0  0  0  0  0  0  0  0  0  0
   -3.4147   -1.7311    1.3033 N   0  0  0  0  0  0  0  0  0  0  0  0
   -2.5487   -1.6921    0.1535 C   0  0  0  0  0  0  0  0  0  0  0  0
   -3.2847   -0.9833   -0.9257 C   0  0  0  0  0  0  0  0  0  0  0  0
   -2.6726    0.2663   -1.4057 C   0  0  0  0  0  0  0  0  0  0  0  0
   -1.7685    0.9000   -0.6303 C   0  0  0  0  0  0  0  0  0  0  0  0
   -1.0468    2.0207   -0.8928 C   0  0  0  0  0  0  0  0  0  0  0  0
   -0.2495    2.2534    0.2175 O   0  0  0  0  0  0  0  0  0  0  0  0
   -1.2820    2.5963   -2.1366 C   0  0  0  0  0  0  0  0  0  0  0  0
   -0.5840    3.7426   -2.4707 O   0  0  0  0  0  0  0  0  0  0  0  0
   -2.2093    2.0034   -3.0036 C   0  0  0  0  0  0  0  0  0  0  0  0
   -2.9091    0.8413   -2.6523 C   0  0  0  0  0  0  0  0  0  0  0  0
   -3.4225   -3.0201    1.9434 C   0  0  0  0  0  0  0  0  0  0  0  0
    1.6322    0.7172   -2.0180 O   0  0  0  0  0  0  0  0  0  0  0  0
    2.3516   -1.4844   -1.9537 C   0  0  0  0  0  0  0  0  0  0  0  0
    6.5025    0.9234   -1.6131 H   0  0  0  0  0  0  0  0  0  0  0  0
    5.4506    2.1749   -0.7762 H   0  0  0  0  0  0  0  0  0  0  0  0
    5.7120    0.5979   -0.0056 H   0  0  0  0  0  0  0  0  0  0  0  0
    3.9605    1.4426   -2.3024 H   0  0  0  0  0  0  0  0  0  0  0  0
    4.6475   -0.2846   -2.2632 H   0  0  0  0  0  0  0  0  0  0  0  0
    3.9106   -0.4501    0.0890 H   0  0  0  0  0  0  0  0  0  0  0  0
    3.2478    1.2528   -0.0400 H   0  0  0  0  0  0  0  0  0  0  0  0
    1.5698   -1.6196    0.3417 H   0  0  0  0  0  0  0  0  0  0  0  0
   -0.1160   -2.1953   -0.9534 H   0  0  0  0  0  0  0  0  0  0  0  0
   -0.4028   -0.5000   -1.4932 H   0  0  0  0  0  0  0  0  0  0  0  0
   -0.9332   -2.4157    2.3098 H   0  0  0  0  0  0  0  0  0  0  0  0
    0.8608   -0.8684    3.1423 H   0  0  0  0  0  0  0  0  0  0  0  0
    2.9376    1.8292    3.0787 H   0  0  0  0  0  0  0  0  0  0  0  0
    1.4858    1.0060    3.6761 H   0  0  0  0  0  0  0  0  0  0  0  0
    1.3832    2.4776    2.5719 H   0  0  0  0  0  0  0  0  0  0  0  0
   -0.4006    1.5527    2.1230 H   0  0  0  0  0  0  0  0  0  0  0  0
   -3.3385    1.2785    1.3726 H   0  0  0  0  0  0  0  0  0  0  0  0
   -2.1201    1.0490    2.6277 H   0  0  0  0  0  0  0  0  0  0  0  0
   -4.2246   -0.3874    2.6069 H   0  0  0  0  0  0  0  0  0  0  0  0
   -2.7311   -1.1152    3.1759 H   0  0  0  0  0  0  0  0  0  0  0  0
   -2.3901   -2.7553   -0.1591 H   0  0  0  0  0  0  0  0  0  0  0  0
   -4.3034   -0.6749   -0.5290 H   0  0  0  0  0  0  0  0  0  0  0  0
   -3.4947   -1.6723   -1.8028 H   0  0  0  0  0  0  0  0  0  0  0  0
   -1.0454    4.6538   -2.3644 H   0  0  0  0  0  0  0  0  0  0  0  0
   -2.3928    2.4635   -3.9874 H   0  0  0  0  0  0  0  0  0  0  0  0
   -3.6239    0.3754   -3.3116 H   0  0  0  0  0  0  0  0  0  0  0  0
   -2.7280   -3.7045    1.4158 H   0  0  0  0  0  0  0  0  0  0  0  0
   -3.1327   -2.9944    3.0207 H   0  0  0  0  0  0  0  0  0  0  0  0
   -4.4265   -3.5026    1.8883 H   0  0  0  0  0  0  0  0  0  0  0  0
    2.1772    0.6110   -2.8335 H   0  0  0  0  0  0  0  0  0  0  0  0
    1.3871   -1.8932   -2.2846 H   0  0  0  0  0  0  0  0  0  0  0  0
    2.9196   -1.1696   -2.8651 H   0  0  0  0  0  0  0  0  0  0  0  0
    2.8739   -2.2665   -1.3741 H   0  0  0  0  0  0  0  0  0  0  0  0
  1  2  1  0
  2  3  1  0
  3  4  1  0
  4  5  1  0
  5  6  1  0
  6  7  1  0
  7  8  1  0
  8  9  2  0
  9 10  1  0
 10 11  1  1
 11 12  1  0
 10 13  1  0
 13 14  1  0
 14 15  1  0
 15 16  1  0
 16 17  1  0
 17 18  1  0
 18 19  1  0
 19 20  1  0
 20 21  1  0
 21 22  2  0
 22 23  1  0
 22 24  1  0
 24 25  1  0
 24 26  2  0
 26 27  1  0
 17 28  1  0
  4 29  1  6
  4 30  1  0
 10  5  1  0
 23 13  1  0
 18  7  1  0
 27 20  2  0
 14  7  1  0
 21 14  1  0
  1 31  1  0
  1 32  1  0
  1 33  1  0
  2 34  1  0
  2 35  1  0
  3 36  1  0
  3 37  1  0
  5 38  1  1
  6 39  1  0
  6 40  1  0
  8 41  1  0
  9 42  1  0
 12 43  1  0
 12 44  1  0
 12 45  1  0
 13 46  1  1
 15 47  1  0
 15 48  1  0
 16 49  1  0
 16 50  1  0
 18 51  1  0
 19 52  1  0
 19 53  1  0
 25 54  1  0
 26 55  1  0
 27 56  1  0
 28 57  1  0
 28 58  1  0
 28 59  1  0
 29 60  1  0
 30 61  1  0
 30 62  1  0
 30 63  1  0
M  END
>  <Ligand ID>  (1) 
LIG0004066

>  <Ligand>  (1) 
CHEMBL1169580

>  <SMILES>  (1) 
CCC[C@@]([C@@H]1CC23C=C[C@]1(OC)[C@@H]1C43CCN(C2Cc2c4c(O1)c(O)cc2)C)(O)C

>  <CID>  (1) 
49799964.0

>  <ChEMBL ID>  (1) 
nan

>  <InChiKey>  (1) 
CAHCBJPUTCKATP-PRHRQKLRSA-N

>  <InChi>  (1) 
InChI=1S/C25H33NO4/c1-5-8-22(2,28)17-14-23-9-10-25(17,29-4)21-24(23)11-12-26(3)18(23)13-15-6-7-16(27)20(30-21)19(15)24/h6-7,9-10,17-18,21,27-28H,5,8,11-14H2,1-4H3/t17-,18?,21-,22-,23?,24?,25+/m0/s1

>  <IUPAC Name>  (1) 
(14S,15R,19S)-19-[(2S)-2-hydroxypentan-2-yl]-15-methoxy-5-methyl-13-oxa-5-azahexacyclo[13.2.2.12,8.01,6.02,14.012,20]icosa-8(20),9,11,16-tetraen-11-ol

$$$$
