
     RDKit          3D

 50 52  0  0  0  0  0  0  0  0999 V2000
   -3.7590    3.3878    1.7142 N   0  0  0  0  0  0  0  0  0  0  0  0
   -3.6738    2.3364    1.1915 C   0  0  0  0  0  0  0  0  0  0  0  0
   -3.5536    1.0492    0.5631 C   0  0  0  0  0  0  0  0  0  0  0  0
   -2.2945    0.5271    0.3355 C   0  0  0  0  0  0  0  0  0  0  0  0
   -2.1158   -0.7094   -0.2665 C   0  0  0  0  0  0  0  0  0  0  0  0
   -3.2382   -1.3962   -0.6284 C   0  0  0  0  0  0  0  0  0  0  0  0
   -4.5064   -0.8799   -0.4039 C   0  0  0  0  0  0  0  0  0  0  0  0
   -4.6990    0.3471    0.1932 C   0  0  0  0  0  0  0  0  0  0  0  0
   -5.9038    0.9260    0.4498 O   0  0  0  0  0  0  0  0  0  0  0  0
   -7.1841    0.4722    0.1986 C   0  0  0  0  0  0  0  0  0  0  0  0
   -7.9836    1.3467   -0.7323 C   0  0  0  0  0  0  0  0  0  0  0  0
   -8.1543    2.6350   -0.2640 F   0  0  0  0  0  0  0  0  0  0  0  0
   -7.4591    1.3942   -2.0016 F   0  0  0  0  0  0  0  0  0  0  0  0
   -9.2539    0.8176   -0.8579 F   0  0  0  0  0  0  0  0  0  0  0  0
   -8.0120    0.2670    1.4528 C   0  0  0  0  0  0  0  0  0  0  0  0
   -8.1679    1.4277    2.1861 F   0  0  0  0  0  0  0  0  0  0  0  0
   -7.5463   -0.7936    2.1979 F   0  0  0  0  0  0  0  0  0  0  0  0
   -9.2872   -0.0985    1.0313 F   0  0  0  0  0  0  0  0  0  0  0  0
   -0.7930   -1.2694   -0.5113 C   0  0  0  0  0  0  0  0  0  0  0  0
   -0.4549   -2.4118   -1.0633 O   0  0  0  0  0  0  0  0  0  0  0  0
    0.8410   -2.5451   -1.0996 N   0  0  0  0  0  0  0  0  0  0  0  0
    1.3597   -1.4412   -0.5472 C   0  0  0  0  0  0  0  0  0  0  0  0
    0.3472   -0.6652   -0.1897 N   0  0  0  0  0  0  0  0  0  0  0  0
    2.7781   -1.1509   -0.3731 C   0  0  0  0  0  0  0  0  0  0  0  0
    3.7514   -2.0377   -0.7853 C   0  0  0  0  0  0  0  0  0  0  0  0
    5.0877   -1.7627   -0.6206 C   0  0  0  0  0  0  0  0  0  0  0  0
    5.5244   -0.5961   -0.0403 C   0  0  0  0  0  0  0  0  0  0  0  0
    4.5307    0.2896    0.3713 C   0  0  0  0  0  0  0  0  0  0  0  0
    3.1907    0.0237    0.2112 C   0  0  0  0  0  0  0  0  0  0  0  0
    2.1760    0.9997    0.6666 C   0  0  0  0  0  0  0  0  0  0  0  0
    6.9113   -0.2002    0.1632 C   0  0  0  0  0  0  0  0  0  0  0  0
    7.5308    0.6842   -0.8514 C   0  0  0  0  0  0  0  0  0  0  0  0
    7.5856    0.1431   -2.2119 C   0  0  0  0  0  0  0  0  0  0  0  0
    7.1875   -0.9625   -2.6062 O   0  0  0  0  0  0  0  0  0  0  0  0
    8.1599    0.9776   -3.1960 O   0  0  0  0  0  0  0  0  0  0  0  0
   -1.4220    1.1144    0.6431 H   0  0  0  0  0  0  0  0  0  0  0  0
   -3.1883   -2.3776   -1.1084 H   0  0  0  0  0  0  0  0  0  0  0  0
   -5.3726   -1.4524   -0.7040 H   0  0  0  0  0  0  0  0  0  0  0  0
   -7.1299   -0.5225   -0.2874 H   0  0  0  0  0  0  0  0  0  0  0  0
    3.4158   -2.9690   -1.2489 H   0  0  0  0  0  0  0  0  0  0  0  0
    5.7873   -2.5083   -0.9530 H   0  0  0  0  0  0  0  0  0  0  0  0
    4.8018    1.2185    0.8322 H   0  0  0  0  0  0  0  0  0  0  0  0
    1.5614    1.3833   -0.1771 H   0  0  0  0  0  0  0  0  0  0  0  0
    1.5366    0.6171    1.4726 H   0  0  0  0  0  0  0  0  0  0  0  0
    2.6934    1.9137    1.0739 H   0  0  0  0  0  0  0  0  0  0  0  0
    7.0130    0.3388    1.1553 H   0  0  0  0  0  0  0  0  0  0  0  0
    7.5304   -1.1450    0.2036 H   0  0  0  0  0  0  0  0  0  0  0  0
    8.6170    0.8009   -0.5356 H   0  0  0  0  0  0  0  0  0  0  0  0
    7.1288    1.7307   -0.8249 H   0  0  0  0  0  0  0  0  0  0  0  0
    8.1056    0.7259   -4.1826 H   0  0  0  0  0  0  0  0  0  0  0  0
  1  2  3  0
  2  3  1  0
  3  4  2  0
  4  5  1  0
  5  6  2  0
  6  7  1  0
  7  8  2  0
  8  9  1  0
  9 10  1  0
 10 11  1  0
 11 12  1  0
 11 13  1  0
 11 14  1  0
 10 15  1  0
 15 16  1  0
 15 17  1  0
 15 18  1  0
  5 19  1  0
 19 20  1  0
 20 21  1  0
 21 22  2  0
 22 23  1  0
 22 24  1  0
 24 25  2  0
 25 26  1  0
 26 27  2  0
 27 28  1  0
 28 29  2  0
 29 30  1  0
 27 31  1  0
 31 32  1  0
 32 33  1  0
 33 34  2  0
 33 35  1  0
  8  3  1  0
 23 19  2  0
 29 24  1  0
  4 36  1  0
  6 37  1  0
  7 38  1  0
 10 39  1  0
 25 40  1  0
 26 41  1  0
 28 42  1  0
 30 43  1  0
 30 44  1  0
 30 45  1  0
 31 46  1  0
 31 47  1  0
 32 48  1  0
 32 49  1  0
 35 50  1  0
M  END
>  <Ligand ID>  (1) 
LIG0001677

>  <Ligand>  (1) 
CHEMBL210942

>  <SMILES>  (1) 
N#Cc1cc(ccc1OC(C(F)(F)F)C(F)(F)F)c1onc(n1)c1ccc(cc1C)CCC(=O)O

>  <CID>  (1) 
44412994.0

>  <ChEMBL ID>  (1) 
nan

>  <InChiKey>  (1) 
HTJYQFNFGMOXCX-UHFFFAOYSA-N

>  <InChi>  (1) 
InChI=1S/C22H15F6N3O4/c1-11-8-12(3-7-17(32)33)2-5-15(11)18-30-19(35-31-18)13-4-6-16(14(9-13)10-29)34-20(21(23,24)25)22(26,27)28/h2,4-6,8-9,20H,3,7H2,1H3,(H,32,33)

>  <IUPAC Name>  (1) 
3-[4-[5-[3-cyano-4-(1,1,1,3,3,3-hexafluoropropan-2-yloxy)phenyl]-1,2,4-oxadiazol-3-yl]-3-methylphenyl]propanoic acid

$$$$
