
     RDKit          3D

 32 34  0  0  0  0  0  0  0  0999 V2000
   -5.4630    2.0728    0.5450 N   0  0  0  0  0  0  0  0  0  0  0  0
   -4.6137    1.0325    0.0533 C   0  0  0  0  0  0  0  0  0  0  0  0
   -3.4461    1.2640   -0.4190 N   0  0  0  0  0  0  0  0  0  0  0  0
   -2.8480    0.0356   -0.8269 C   0  0  2  0  0  0  0  0  0  0  0  0
   -3.6217   -1.0144   -0.0651 C   0  0  0  0  0  0  0  0  0  0  0  0
   -4.8959   -0.3480    0.0057 O   0  0  0  0  0  0  0  0  0  0  0  0
   -1.3955   -0.0373   -0.5464 C   0  0  0  0  0  0  0  0  0  0  0  0
   -0.5621   -0.5038   -1.5527 C   0  0  0  0  0  0  0  0  0  0  0  0
    0.7971   -0.5859   -1.3173 C   0  0  0  0  0  0  0  0  0  0  0  0
    1.2470   -0.1918   -0.0738 C   0  0  0  0  0  0  0  0  0  0  0  0
    0.4144    0.2710    0.9230 C   0  0  0  0  0  0  0  0  0  0  0  0
   -0.9476    0.3535    0.6872 C   0  0  0  0  0  0  0  0  0  0  0  0
    2.6808   -0.2702    0.1932 C   0  0  0  0  0  0  0  0  0  0  0  0
    3.5611   -0.0625   -0.8762 C   0  0  0  0  0  0  0  0  0  0  0  0
    4.9283   -0.1193   -0.7128 C   0  0  0  0  0  0  0  0  0  0  0  0
    5.4472   -0.3878    0.5370 C   0  0  0  0  0  0  0  0  0  0  0  0
    4.5787   -0.5947    1.6016 C   0  0  0  0  0  0  0  0  0  0  0  0
    3.1981   -0.5369    1.4346 C   0  0  0  0  0  0  0  0  0  0  0  0
   -5.5155    2.9635   -0.0333 H   0  0  0  0  0  0  0  0  0  0  0  0
   -6.0169    1.9901    1.4255 H   0  0  0  0  0  0  0  0  0  0  0  0
   -3.0587   -0.0736   -1.9290 H   0  0  0  0  0  0  0  0  0  0  0  0
   -3.2454   -1.0677    0.9700 H   0  0  0  0  0  0  0  0  0  0  0  0
   -3.7049   -1.9765   -0.5830 H   0  0  0  0  0  0  0  0  0  0  0  0
   -0.9177   -0.8112   -2.5235 H   0  0  0  0  0  0  0  0  0  0  0  0
    1.4440   -0.9457   -2.0922 H   0  0  0  0  0  0  0  0  0  0  0  0
    0.8010    0.5760    1.8982 H   0  0  0  0  0  0  0  0  0  0  0  0
   -1.6362    0.7094    1.4361 H   0  0  0  0  0  0  0  0  0  0  0  0
    3.1941    0.1524   -1.8786 H   0  0  0  0  0  0  0  0  0  0  0  0
    5.5876    0.0496   -1.5773 H   0  0  0  0  0  0  0  0  0  0  0  0
    6.5252   -0.4371    0.6869 H   0  0  0  0  0  0  0  0  0  0  0  0
    4.9357   -0.8063    2.5899 H   0  0  0  0  0  0  0  0  0  0  0  0
    2.5482   -0.6997    2.2676 H   0  0  0  0  0  0  0  0  0  0  0  0
  1  2  1  0
  2  3  2  0
  3  4  1  0
  4  5  1  0
  5  6  1  0
  4  7  1  0
  7  8  2  0
  8  9  1  0
  9 10  2  0
 10 11  1  0
 11 12  2  0
 10 13  1  0
 13 14  2  0
 14 15  1  0
 15 16  2  0
 16 17  1  0
 17 18  2  0
  6  2  1  0
 12  7  1  0
 18 13  1  0
  1 19  1  0
  1 20  1  0
  4 21  1  6
  5 22  1  0
  5 23  1  0
  8 24  1  0
  9 25  1  0
 11 26  1  0
 12 27  1  0
 14 28  1  0
 15 29  1  0
 16 30  1  0
 17 31  1  0
 18 32  1  0
M  END
>  <Ligand ID>  (1) 
LIG0005699

>  <Ligand>  (1) 
CHEMBL3781546

>  <SMILES>  (1) 
NC1=N[C@H](CO1)c1ccc(cc1)c1ccccc1

>  <CID>  (1) 
24966828.0

>  <ChEMBL ID>  (1) 
nan

>  <InChiKey>  (1) 
VXPAHLKILGDCAD-CQSZACIVSA-N

>  <InChi>  (1) 
InChI=1S/C15H14N2O/c16-15-17-14(10-18-15)13-8-6-12(7-9-13)11-4-2-1-3-5-11/h1-9,14H,10H2,(H2,16,17)/t14-/m1/s1

>  <IUPAC Name>  (1) 
(4S)-4-(4-phenylphenyl)-4,5-dihydro-1,3-oxazol-2-amine

$$$$
