
     RDKit          3D

 65 67  0  0  0  0  0  0  0  0999 V2000
    4.3449    2.5302    0.9140 C   0  0  0  0  0  0  0  0  0  0  0  0
    4.4936    1.2947    0.0666 C   0  0  2  0  0  0  0  0  0  0  0  0
    3.1979    0.9138   -0.6036 C   0  0  0  0  0  0  0  0  0  0  0  0
    2.1705    0.5951    0.3584 N   0  0  0  0  0  0  0  0  0  0  0  0
    0.8487    0.2067   -0.0420 C   0  0  0  0  0  0  0  0  0  0  0  0
    0.4791    0.1888   -1.3711 C   0  0  0  0  0  0  0  0  0  0  0  0
   -0.8232   -0.2289   -1.6676 C   0  0  0  0  0  0  0  0  0  0  0  0
   -1.7051   -0.6111   -0.6681 C   0  0  0  0  0  0  0  0  0  0  0  0
   -1.3324   -0.5927    0.6525 C   0  0  0  0  0  0  0  0  0  0  0  0
   -0.0482   -0.1783    0.9378 C   0  0  0  0  0  0  0  0  0  0  0  0
   -3.0987   -1.0004   -1.0338 C   0  0  0  0  0  0  0  0  0  0  0  0
   -4.0782   -0.4751   -0.0600 C   0  0  0  0  0  0  0  0  0  0  0  0
   -4.2530   -0.9924    1.0684 O   0  0  0  0  0  0  0  0  0  0  0  0
   -4.8925    0.6741   -0.3512 N   0  0  0  0  0  0  0  0  0  0  0  0
   -5.9967    1.1471    0.8975 S   0  0  0  0  0  0  0  0  0  0  0  0
   -5.5224    0.6377    2.2453 O   0  0  0  0  0  0  0  0  0  0  0  0
   -5.9149    2.6554    1.0108 O   0  0  0  0  0  0  0  0  0  0  0  0
   -7.6241    0.6064    0.5929 C   0  0  0  0  0  0  0  0  0  0  0  0
   -8.4688    1.5400   -0.0282 C   0  0  0  0  0  0  0  0  0  0  0  0
   -9.7771    1.2562   -0.3293 C   0  0  0  0  0  0  0  0  0  0  0  0
  -10.2367   -0.0149    0.0135 C   0  0  0  0  0  0  0  0  0  0  0  0
   -9.4239   -0.9437    0.6232 C   0  0  0  0  0  0  0  0  0  0  0  0
   -8.0883   -0.6456    0.9268 C   0  0  0  0  0  0  0  0  0  0  0  0
  -11.6713   -0.2815   -0.3261 C   0  0  0  0  0  0  0  0  0  0  0  0
    4.9755    0.2321    0.9239 N   0  0  0  0  0  0  0  0  0  0  0  0
    5.0351   -1.0629    0.3474 C   0  0  0  0  0  0  0  0  0  0  0  0
    6.0891   -1.2008   -0.7229 C   0  0  1  0  0  0  0  0  0  0  0  0
    7.4462   -0.9791   -0.1598 C   0  0  0  0  0  0  0  0  0  0  0  0
    7.9495   -1.9358    0.7217 C   0  0  0  0  0  0  0  0  0  0  0  0
    9.2103   -1.7688    1.2744 C   0  0  0  0  0  0  0  0  0  0  0  0
    9.9128   -0.6476    0.9171 C   0  0  0  0  0  0  0  0  0  0  0  0
    9.4068    0.2921    0.0440 C   0  0  0  0  0  0  0  0  0  0  0  0
    8.1687    0.1476   -0.5105 C   0  0  0  0  0  0  0  0  0  0  0  0
   10.3464    1.7300   -0.3830 Cl  0  0  0  0  0  0  0  0  0  0  0  0
    6.0189   -2.5156   -1.1695 O   0  0  0  0  0  0  0  0  0  0  0  0
    3.4556    3.1285    0.6412 H   0  0  0  0  0  0  0  0  0  0  0  0
    5.2182    3.2210    0.7073 H   0  0  0  0  0  0  0  0  0  0  0  0
    4.4160    2.3149    2.0005 H   0  0  0  0  0  0  0  0  0  0  0  0
    5.2403    1.4882   -0.7147 H   0  0  0  0  0  0  0  0  0  0  0  0
    2.8462    1.8100   -1.1674 H   0  0  0  0  0  0  0  0  0  0  0  0
    3.3354    0.1047   -1.3301 H   0  0  0  0  0  0  0  0  0  0  0  0
    2.4096    0.6579    1.3569 H   0  0  0  0  0  0  0  0  0  0  0  0
    1.1659    0.4860   -2.1555 H   0  0  0  0  0  0  0  0  0  0  0  0
   -1.1220   -0.2455   -2.7027 H   0  0  0  0  0  0  0  0  0  0  0  0
   -1.9569   -0.8703    1.4691 H   0  0  0  0  0  0  0  0  0  0  0  0
    0.2833   -0.1461    1.9507 H   0  0  0  0  0  0  0  0  0  0  0  0
   -3.3227   -0.7062   -2.0749 H   0  0  0  0  0  0  0  0  0  0  0  0
   -3.1103   -2.1233   -1.0136 H   0  0  0  0  0  0  0  0  0  0  0  0
   -4.8057    1.1729   -1.2501 H   0  0  0  0  0  0  0  0  0  0  0  0
   -8.1085    2.5327   -0.2963 H   0  0  0  0  0  0  0  0  0  0  0  0
  -10.4237    1.9670   -0.8048 H   0  0  0  0  0  0  0  0  0  0  0  0
   -9.8543   -1.8953    0.8560 H   0  0  0  0  0  0  0  0  0  0  0  0
   -7.4435   -1.3653    1.4024 H   0  0  0  0  0  0  0  0  0  0  0  0
  -12.0018    0.3718   -1.1649 H   0  0  0  0  0  0  0  0  0  0  0  0
  -11.8369   -1.3465   -0.4803 H   0  0  0  0  0  0  0  0  0  0  0  0
  -12.2841    0.0521    0.5641 H   0  0  0  0  0  0  0  0  0  0  0  0
    4.5699    0.2705    1.8772 H   0  0  0  0  0  0  0  0  0  0  0  0
    5.3728   -1.7554    1.1737 H   0  0  0  0  0  0  0  0  0  0  0  0
    4.0652   -1.4876    0.0310 H   0  0  0  0  0  0  0  0  0  0  0  0
    5.9372   -0.5381   -1.5935 H   0  0  0  0  0  0  0  0  0  0  0  0
    7.3607   -2.8000    0.9719 H   0  0  0  0  0  0  0  0  0  0  0  0
    9.6328   -2.4998    1.9701 H   0  0  0  0  0  0  0  0  0  0  0  0
   10.9061   -0.5298    1.3600 H   0  0  0  0  0  0  0  0  0  0  0  0
    7.7421    0.8636   -1.1968 H   0  0  0  0  0  0  0  0  0  0  0  0
    5.1748   -2.7055   -1.6737 H   0  0  0  0  0  0  0  0  0  0  0  0
  1  2  1  0
  2  3  1  0
  3  4  1  0
  4  5  1  0
  5  6  2  0
  6  7  1  0
  7  8  2  0
  8  9  1  0
  9 10  2  0
  8 11  1  0
 11 12  1  0
 12 13  2  0
 12 14  1  0
 14 15  1  0
 15 16  2  0
 15 17  2  0
 15 18  1  0
 18 19  2  0
 19 20  1  0
 20 21  2  0
 21 22  1  0
 22 23  2  0
 21 24  1  0
  2 25  1  0
 25 26  1  0
 26 27  1  0
 27 28  1  0
 28 29  2  0
 29 30  1  0
 30 31  2  0
 31 32  1  0
 32 33  2  0
 32 34  1  0
 27 35  1  0
 10  5  1  0
 23 18  1  0
 33 28  1  0
  1 36  1  0
  1 37  1  0
  1 38  1  0
  2 39  1  6
  3 40  1  0
  3 41  1  0
  4 42  1  0
  6 43  1  0
  7 44  1  0
  9 45  1  0
 10 46  1  0
 11 47  1  0
 11 48  1  0
 14 49  1  0
 19 50  1  0
 20 51  1  0
 22 52  1  0
 23 53  1  0
 24 54  1  0
 24 55  1  0
 24 56  1  0
 25 57  1  0
 26 58  1  0
 26 59  1  0
 27 60  1  6
 29 61  1  0
 30 62  1  0
 31 63  1  0
 33 64  1  0
 35 65  1  0
M  END
>  <Ligand ID>  (1) 
LIG0003835

>  <Ligand>  (1) 
CHEMBL348501

>  <SMILES>  (1) 
C[C@H](CNc1ccc(cc1)CC(=O)NS(=O)(=O)c1ccc(cc1)C)NC[C@@H](c1cccc(c1)Cl)O

>  <CID>  (1) 
10346448.0

>  <ChEMBL ID>  (1) 
nan

>  <InChiKey>  (1) 
UPGOYGICVAIMSE-CLOONOSVSA-N

>  <InChi>  (1) 
InChI=1S/C26H30ClN3O4S/c1-18-6-12-24(13-7-18)35(33,34)30-26(32)14-20-8-10-23(11-9-20)29-16-19(2)28-17-25(31)21-4-3-5-22(27)15-21/h3-13,15,19,25,28-29,31H,14,16-17H2,1-2H3,(H,30,32)/t19-,25+/m1/s1

>  <IUPAC Name>  (1) 
2-[4-[[(2R)-2-[[(2R)-2-(3-chlorophenyl)-2-hydroxyethyl]amino]propyl]amino]phenyl]-N-(4-methylphenyl)sulfonylacetamide

$$$$
