
     RDKit          3D

 35 38  0  0  0  0  0  0  0  0999 V2000
    3.8512   -2.2743   -0.6861 O   0  0  0  0  0  0  0  0  0  0  0  0
    3.1937   -2.4306    0.2760 N   0  0  0  0  0  0  0  0  0  0  0  0
    2.4461   -1.4127    0.9547 C   0  0  0  0  0  0  0  0  0  0  0  0
    2.9128   -0.0389    0.5731 C   0  0  0  0  0  0  0  0  0  0  0  0
    3.8062    0.6539    1.3715 C   0  0  0  0  0  0  0  0  0  0  0  0
    4.2098    1.9149    0.9840 C   0  0  0  0  0  0  0  0  0  0  0  0
    3.7357    2.4838   -0.1786 C   0  0  0  0  0  0  0  0  0  0  0  0
    2.8388    1.8034   -0.9920 C   0  0  0  0  0  0  0  0  0  0  0  0
    2.4411    0.5494   -0.6012 C   0  0  0  0  0  0  0  0  0  0  0  0
    1.5443   -0.2301   -1.3361 O   0  0  0  0  0  0  0  0  0  0  0  0
    0.5398   -0.9958   -0.6532 C   0  0  2  0  0  0  0  0  0  0  0  0
    0.9901   -1.5003    0.6484 C   0  0  1  0  0  0  0  0  0  0  0  0
    0.6409   -2.4329   -0.4612 C   0  0  0  0  0  0  0  0  0  0  0  0
   -0.7919   -0.3103   -0.7635 C   0  0  0  0  0  0  0  0  0  0  0  0
   -0.8754    0.7644   -1.3866 O   0  0  0  0  0  0  0  0  0  0  0  0
   -1.9351   -0.8783   -0.1675 N   0  0  0  0  0  0  0  0  0  0  0  0
   -3.2119   -0.2375   -0.2634 C   0  0  0  0  0  0  0  0  0  0  0  0
   -3.5929    0.6766    0.7090 C   0  0  0  0  0  0  0  0  0  0  0  0
   -4.8262    1.3043    0.6285 C   0  0  0  0  0  0  0  0  0  0  0  0
   -5.6967    1.0261   -0.4271 C   0  0  0  0  0  0  0  0  0  0  0  0
   -5.2792    0.1047   -1.3815 C   0  0  0  0  0  0  0  0  0  0  0  0
   -4.0735   -0.4703   -1.2493 N   0  0  0  0  0  0  0  0  0  0  0  0
    2.5917   -1.5519    2.0412 H   0  0  0  0  0  0  0  0  0  0  0  0
    4.1769    0.2011    2.2868 H   0  0  0  0  0  0  0  0  0  0  0  0
    4.9092    2.4264    1.6333 H   0  0  0  0  0  0  0  0  0  0  0  0
    4.0653    3.4762   -0.4655 H   0  0  0  0  0  0  0  0  0  0  0  0
    2.4529    2.2328   -1.9117 H   0  0  0  0  0  0  0  0  0  0  0  0
    0.2976   -1.3183    1.4893 H   0  0  0  0  0  0  0  0  0  0  0  0
   -0.3068   -2.9822   -0.3282 H   0  0  0  0  0  0  0  0  0  0  0  0
    1.4279   -3.0471   -0.9246 H   0  0  0  0  0  0  0  0  0  0  0  0
   -1.8903   -1.7822    0.3623 H   0  0  0  0  0  0  0  0  0  0  0  0
   -2.9157    0.8936    1.5312 H   0  0  0  0  0  0  0  0  0  0  0  0
   -5.0785    2.0046    1.4039 H   0  0  0  0  0  0  0  0  0  0  0  0
   -6.6611    1.5151   -0.4927 H   0  0  0  0  0  0  0  0  0  0  0  0
   -5.9367   -0.1376   -2.2234 H   0  0  0  0  0  0  0  0  0  0  0  0
  1  2  2  0
  2  3  1  0
  3  4  1  0
  4  5  2  0
  5  6  1  0
  6  7  2  0
  7  8  1  0
  8  9  2  0
  9 10  1  0
 10 11  1  0
 11 12  1  0
 12 13  1  0
 11 14  1  1
 14 15  2  0
 14 16  1  0
 16 17  1  0
 17 18  2  0
 18 19  1  0
 19 20  2  0
 20 21  1  0
 21 22  2  0
 12  3  1  0
 22 17  1  0
  9  4  1  0
 13 11  1  0
  3 23  1  0
  5 24  1  0
  6 25  1  0
  7 26  1  0
  8 27  1  0
 12 28  1  1
 13 29  1  0
 13 30  1  0
 16 31  1  0
 18 32  1  0
 19 33  1  0
 20 34  1  0
 21 35  1  0
M  END
>  <Ligand ID>  (1) 
LIG0000491

>  <Ligand>  (1) 
BDBM50388941

>  <SMILES>  (1) 
O=NC1c2ccccc2O[C@@]2([C@H]1C2)C(=O)Nc1ccccn1

>  <CID>  (1) 
91929760.0

>  <ChEMBL ID>  (1) 
nan

>  <InChiKey>  (1) 
BYHNFRUAWWJVKC-IPGJNNTFSA-N

>  <InChi>  (1) 
InChI=1S/C16H13N3O3/c20-15(18-13-7-3-4-8-17-13)16-9-11(16)14(19-21)10-5-1-2-6-12(10)22-16/h1-8,11,14H,9H2,(H,17,18,20)/t11-,14?,16-/m0/s1

>  <IUPAC Name>  (1) 
(1aS,7aS)-7-nitroso-N-pyridin-2-yl-7,7a-dihydro-1H-cyclopropa[b]chromene-1a-carboxamide

$$$$
