
     RDKit          3D

 91 92  0  0  0  0  0  0  0  0999 V2000
   -0.9903   -0.1163    0.0419 C   0  0  0  0  0  0  0  0  0  0  0  0
    0.4222    0.2931   -0.1899 C   0  0  0  0  0  0  0  0  0  0  0  0
    0.7562    1.4755   -0.4665 O   0  0  0  0  0  0  0  0  0  0  0  0
    1.4809   -0.6277   -0.1130 O   0  0  0  0  0  0  0  0  0  0  0  0
    6.4808    5.1919    0.1294 O   0  0  0  0  0  0  0  0  0  0  0  0
    6.5830    4.6056    1.3938 C   0  0  0  0  0  0  0  0  0  0  0  0
    6.1118    3.1963    1.3624 C   0  0  0  0  0  0  0  0  0  0  0  0
    5.6202    2.6219    0.2096 C   0  0  0  0  0  0  0  0  0  0  0  0
    5.2069    1.3258    0.2671 C   0  0  0  0  0  0  0  0  0  0  0  0
    5.2742    0.5969    1.4462 C   0  0  0  0  0  0  0  0  0  0  0  0
    5.7670    1.1712    2.6028 C   0  0  0  0  0  0  0  0  0  0  0  0
    6.1955    2.4948    2.5670 C   0  0  0  0  0  0  0  0  0  0  0  0
    6.6937    3.0957    3.7093 O   0  0  0  0  0  0  0  0  0  0  0  0
    4.6549    0.5822   -0.9223 C   0  0  2  0  0  0  0  0  0  0  0  0
    3.1760    0.6664   -0.9277 C   0  0  0  0  0  0  0  0  0  0  0  0
    2.5700    0.1603   -2.1022 N   0  0  0  0  0  0  0  0  0  0  0  0
    2.6455   -1.2576   -2.3083 C   0  0  0  0  0  0  0  0  0  0  0  0
    1.8260   -2.0045   -1.2639 C   0  0  0  0  0  0  0  0  0  0  0  0
    1.9035   -3.4962   -1.4682 C   0  0  0  0  0  0  0  0  0  0  0  0
    1.3953   -3.9809   -2.7724 C   0  0  0  0  0  0  0  0  0  0  0  0
   -0.0331   -3.6772   -3.0630 C   0  0  0  0  0  0  0  0  0  0  0  0
   -0.9928   -4.2736   -2.0902 C   0  0  0  0  0  0  0  0  0  0  0  0
   -0.8383   -3.8060   -0.8039 O   0  0  0  0  0  0  0  0  0  0  0  0
   -1.7444   -4.4616    0.0095 C   0  0  0  0  0  0  0  0  0  0  0  0
   -1.7084   -4.0369    1.4403 C   0  0  0  0  0  0  0  0  0  0  0  0
   -2.1002   -2.6180    1.6553 C   0  0  0  0  0  0  0  0  0  0  0  0
   -1.2309   -1.6528    0.9412 C   0  0  0  0  0  0  0  0  0  0  0  0
   -1.6571   -0.2192    1.2547 C   0  0  0  0  0  0  0  0  0  0  0  0
   -1.0900    0.4613    2.3118 C   0  0  0  0  0  0  0  0  0  0  0  0
   -1.5338    1.7688    2.5426 C   0  0  0  0  0  0  0  0  0  0  0  0
   -2.5104    2.3435    1.7266 C   0  0  0  0  0  0  0  0  0  0  0  0
   -3.0460    1.6230    0.6839 C   0  0  0  0  0  0  0  0  0  0  0  0
   -2.6176    0.3196    0.4373 C   0  0  0  0  0  0  0  0  0  0  0  0
   -4.2799    2.2482   -0.3882 S   0  0  0  0  0  0  0  0  0  0  0  0
   -4.1451    1.6662   -1.7554 O   0  0  0  0  0  0  0  0  0  0  0  0
   -4.1590    3.7458   -0.4127 O   0  0  0  0  0  0  0  0  0  0  0  0
   -5.8488    1.8559    0.3397 C   0  0  0  0  0  0  0  0  0  0  0  0
   -7.0204    2.2216   -0.5569 C   0  0  0  0  0  0  0  0  0  0  0  0
   -8.1364    2.2547    0.4860 C   0  0  0  0  0  0  0  0  0  0  0  0
   -7.5023    3.0682    1.5903 C   0  0  0  0  0  0  0  0  0  0  0  0
   -6.0963    2.5201    1.6496 C   0  0  0  0  0  0  0  0  0  0  0  0
    5.1911   -0.6728   -1.0117 O   0  0  0  0  0  0  0  0  0  0  0  0
   -1.3160    0.2320    1.0531 H   0  0  0  0  0  0  0  0  0  0  0  0
   -1.0518   -1.2137    0.0185 H   0  0  0  0  0  0  0  0  0  0  0  0
   -1.6583    0.3428   -0.7023 H   0  0  0  0  0  0  0  0  0  0  0  0
    2.3571   -0.3857    0.3582 H   0  0  0  0  0  0  0  0  0  0  0  0
    7.3524    5.0900   -0.3583 H   0  0  0  0  0  0  0  0  0  0  0  0
    7.6352    4.6245    1.7109 H   0  0  0  0  0  0  0  0  0  0  0  0
    5.9701    5.2267    2.0810 H   0  0  0  0  0  0  0  0  0  0  0  0
    5.5604    3.1679   -0.7096 H   0  0  0  0  0  0  0  0  0  0  0  0
    4.9416   -0.4437    1.4902 H   0  0  0  0  0  0  0  0  0  0  0  0
    5.8132    0.5789    3.5240 H   0  0  0  0  0  0  0  0  0  0  0  0
    7.5634    2.7164    4.0864 H   0  0  0  0  0  0  0  0  0  0  0  0
    5.0369    1.1439   -1.8281 H   0  0  0  0  0  0  0  0  0  0  0  0
    2.8176    0.1551    0.0072 H   0  0  0  0  0  0  0  0  0  0  0  0
    2.8738    1.7485   -0.8451 H   0  0  0  0  0  0  0  0  0  0  0  0
    1.6593    0.5786   -2.3652 H   0  0  0  0  0  0  0  0  0  0  0  0
    3.6723   -1.5802   -2.3879 H   0  0  0  0  0  0  0  0  0  0  0  0
    2.1834   -1.4387   -3.3297 H   0  0  0  0  0  0  0  0  0  0  0  0
    0.7834   -1.6366   -1.2495 H   0  0  0  0  0  0  0  0  0  0  0  0
    2.2743   -1.7873   -0.2751 H   0  0  0  0  0  0  0  0  0  0  0  0
    2.9869   -3.8083   -1.3811 H   0  0  0  0  0  0  0  0  0  0  0  0
    1.3839   -3.9953   -0.6374 H   0  0  0  0  0  0  0  0  0  0  0  0
    1.5340   -5.1080   -2.7616 H   0  0  0  0  0  0  0  0  0  0  0  0
    2.0693   -3.6791   -3.6347 H   0  0  0  0  0  0  0  0  0  0  0  0
   -0.2335   -2.5698   -3.0587 H   0  0  0  0  0  0  0  0  0  0  0  0
   -0.2819   -4.0824   -4.0919 H   0  0  0  0  0  0  0  0  0  0  0  0
   -2.0299   -3.9828   -2.4097 H   0  0  0  0  0  0  0  0  0  0  0  0
   -0.9227   -5.3880   -2.0523 H   0  0  0  0  0  0  0  0  0  0  0  0
   -2.7758   -4.4157   -0.4192 H   0  0  0  0  0  0  0  0  0  0  0  0
   -1.4860   -5.5563   -0.0475 H   0  0  0  0  0  0  0  0  0  0  0  0
   -2.3580   -4.6977    2.0817 H   0  0  0  0  0  0  0  0  0  0  0  0
   -0.6543   -4.1326    1.8464 H   0  0  0  0  0  0  0  0  0  0  0  0
   -3.1775   -2.5428    1.3438 H   0  0  0  0  0  0  0  0  0  0  0  0
   -2.1651   -2.3797    2.7682 H   0  0  0  0  0  0  0  0  0  0  0  0
   -0.1808   -1.8051    1.2255 H   0  0  0  0  0  0  0  0  0  0  0  0
   -1.3167   -1.7908   -0.1601 H   0  0  0  0  0  0  0  0  0  0  0  0
   -0.3340   -0.0037    2.9322 H   0  0  0  0  0  0  0  0  0  0  0  0
   -1.1244    2.3433    3.3539 H   0  0  0  0  0  0  0  0  0  0  0  0
   -2.8721    3.3439    1.8770 H   0  0  0  0  0  0  0  0  0  0  0  0
   -3.0288   -0.2586   -0.3782 H   0  0  0  0  0  0  0  0  0  0  0  0
   -5.9572    0.7420    0.4874 H   0  0  0  0  0  0  0  0  0  0  0  0
   -7.2357    1.4238   -1.2969 H   0  0  0  0  0  0  0  0  0  0  0  0
   -6.8560    3.1871   -1.0448 H   0  0  0  0  0  0  0  0  0  0  0  0
   -9.0531    2.6865    0.0752 H   0  0  0  0  0  0  0  0  0  0  0  0
   -8.2481    1.2062    0.8379 H   0  0  0  0  0  0  0  0  0  0  0  0
   -7.4403    4.1267    1.2590 H   0  0  0  0  0  0  0  0  0  0  0  0
   -8.0366    2.9570    2.5620 H   0  0  0  0  0  0  0  0  0  0  0  0
   -5.3449    3.3265    1.8125 H   0  0  0  0  0  0  0  0  0  0  0  0
   -6.0617    1.8526    2.5336 H   0  0  0  0  0  0  0  0  0  0  0  0
    6.0600   -0.7914   -0.5947 H   0  0  0  0  0  0  0  0  0  0  0  0
  1  2  1  0
  2  3  2  0
  2  4  1  0
  5  6  1  0
  6  7  1  0
  7  8  2  0
  8  9  1  0
  9 10  2  0
 10 11  1  0
 11 12  2  0
 12 13  1  0
  9 14  1  0
 14 15  1  0
 15 16  1  0
 16 17  1  0
 17 18  1  0
 18 19  1  0
 19 20  1  0
 20 21  1  0
 21 22  1  0
 22 23  1  0
 23 24  1  0
 24 25  1  0
 25 26  1  0
 26 27  1  0
 27 28  1  0
 28 29  2  0
 29 30  1  0
 30 31  2  0
 31 32  1  0
 32 33  2  0
 32 34  1  0
 34 35  2  0
 34 36  2  0
 34 37  1  0
 37 38  1  0
 38 39  1  0
 39 40  1  0
 40 41  1  0
 14 42  1  0
 12  7  1  0
 33 28  1  0
 41 37  1  0
  1 43  1  0
  1 44  1  0
  1 45  1  0
  4 46  1  0
  5 47  1  0
  6 48  1  0
  6 49  1  0
  8 50  1  0
 10 51  1  0
 11 52  1  0
 13 53  1  0
 14 54  1  6
 15 55  1  0
 15 56  1  0
 16 57  1  0
 17 58  1  0
 17 59  1  0
 18 60  1  0
 18 61  1  0
 19 62  1  0
 19 63  1  0
 20 64  1  0
 20 65  1  0
 21 66  1  0
 21 67  1  0
 22 68  1  0
 22 69  1  0
 24 70  1  0
 24 71  1  0
 25 72  1  0
 25 73  1  0
 26 74  1  0
 26 75  1  0
 27 76  1  0
 27 77  1  0
 29 78  1  0
 30 79  1  0
 31 80  1  0
 33 81  1  0
 37 82  1  0
 38 83  1  0
 38 84  1  0
 39 85  1  0
 39 86  1  0
 40 87  1  0
 40 88  1  0
 41 89  1  0
 41 90  1  0
 42 91  1  0
M  END
>  <Ligand ID>  (1) 
LIG0003355

>  <Ligand>  (1) 
CHEMBL3126382

>  <SMILES>  (1) 
CC(=O)O.OCc1cc(ccc1O)[C@H](CNCCCCCCOCCCCc1cccc(c1)S(=O)(=O)C1CCCC1)O

>  <CID>  (1) 
69119876.0

>  <ChEMBL ID>  (1) 
nan

>  <InChiKey>  (1) 
VVUGQHSQCFTHGT-CZCBIWLKSA-N

>  <InChi>  (1) 
InChI=1S/C30H45NO6S.C2H4O2/c32-23-26-21-25(15-16-29(26)33)30(34)22-31-17-6-1-2-7-18-37-19-8-5-10-24-11-9-14-28(20-24)38(35,36)27-12-3-4-13-27;1-2(3)4/h9,11,14-16,20-21,27,30-34H,1-8,10,12-13,17-19,22-23H2;1H3,(H,3,4)/t30-;/m0./s1

>  <IUPAC Name>  (1) 
acetic acid;4-[(1R)-2-[6-[4-(3-cyclopentylsulfonylphenyl)butoxy]hexylamino]-1-hydroxyethyl]-2-(hydroxymethyl)phenol

$$$$
