
     RDKit          3D

 63 65  0  0  0  0  0  0  0  0999 V2000
   -6.2717    1.7159   -2.3306 C   0  0  0  0  0  0  0  0  0  0  0  0
   -5.5664    0.4962   -2.0884 O   0  0  0  0  0  0  0  0  0  0  0  0
   -4.3823    0.5310   -1.3886 C   0  0  0  0  0  0  0  0  0  0  0  0
   -3.1395    0.6905   -1.9961 C   0  0  0  0  0  0  0  0  0  0  0  0
   -3.1544    0.8161   -3.3805 O   0  0  0  0  0  0  0  0  0  0  0  0
   -1.9077    0.9798   -4.0311 C   0  0  0  0  0  0  0  0  0  0  0  0
   -1.9664    0.7236   -1.2885 C   0  0  0  0  0  0  0  0  0  0  0  0
   -1.9965    0.5951    0.0862 C   0  0  0  0  0  0  0  0  0  0  0  0
   -3.2130    0.4359    0.7141 C   0  0  0  0  0  0  0  0  0  0  0  0
   -4.3790    0.4052   -0.0130 C   0  0  0  0  0  0  0  0  0  0  0  0
   -5.6003    0.2346    0.7350 N   0  0  0  0  0  0  0  0  0  0  0  0
   -6.0099   -1.1182    0.9341 C   0  0  0  0  0  0  0  0  0  0  0  0
   -5.2739   -2.0127    0.4435 O   0  0  0  0  0  0  0  0  0  0  0  0
   -7.2341   -1.4164    1.6787 C   0  0  0  0  0  0  0  0  0  0  0  0
   -8.1252   -0.5359    2.2643 C   0  0  0  0  0  0  0  0  0  0  0  0
   -9.0966   -1.3400    2.8326 C   0  0  0  0  0  0  0  0  0  0  0  0
   -8.7716   -2.6564    2.5794 C   0  0  0  0  0  0  0  0  0  0  0  0
   -7.6612   -2.6482    1.8936 O   0  0  0  0  0  0  0  0  0  0  0  0
   -0.7957    0.6196    0.9134 C   0  0  0  0  0  0  0  0  0  0  0  0
   -0.8507    0.4985    2.1839 O   0  0  0  0  0  0  0  0  0  0  0  0
    0.4711    0.7741    0.3811 O   0  0  0  0  0  0  0  0  0  0  0  0
    1.6506    0.8046    1.1217 C   0  0  0  0  0  0  0  0  0  0  0  0
    2.6443   -0.2070    0.6701 C   0  0  0  0  0  0  0  0  0  0  0  0
    2.3079   -0.9414   -0.2936 O   0  0  0  0  0  0  0  0  0  0  0  0
    3.8878   -0.3153    1.3052 N   0  0  0  0  0  0  0  0  0  0  0  0
    4.9042   -1.2747    0.9204 C   0  0  0  0  0  0  0  0  0  0  0  0
    5.2805   -0.9965   -0.5233 C   0  0  0  0  0  0  0  0  0  0  0  0
    6.3462   -1.9629   -1.0051 C   0  0  0  0  0  0  0  0  0  0  0  0
    7.6869   -1.6852   -0.3782 C   0  0  0  0  0  0  0  0  0  0  0  0
    8.1211   -0.2584   -0.5066 C   0  0  0  0  0  0  0  0  0  0  0  0
    7.0684    0.6571    0.0481 C   0  0  0  0  0  0  0  0  0  0  0  0
    5.7716    0.4138   -0.7107 C   0  0  0  0  0  0  0  0  0  0  0  0
    2.3493    2.1554    1.0506 C   0  0  0  0  0  0  0  0  0  0  0  0
   -6.9994    1.8325   -1.4998 H   0  0  0  0  0  0  0  0  0  0  0  0
   -6.8319    1.7040   -3.2640 H   0  0  0  0  0  0  0  0  0  0  0  0
   -5.5656    2.5738   -2.2512 H   0  0  0  0  0  0  0  0  0  0  0  0
   -1.4074    1.9315   -3.7647 H   0  0  0  0  0  0  0  0  0  0  0  0
   -1.2556    0.1424   -3.6822 H   0  0  0  0  0  0  0  0  0  0  0  0
   -2.1058    0.8983   -5.1254 H   0  0  0  0  0  0  0  0  0  0  0  0
   -1.0067    0.8483   -1.7749 H   0  0  0  0  0  0  0  0  0  0  0  0
   -3.2386    0.3353    1.7889 H   0  0  0  0  0  0  0  0  0  0  0  0
   -6.1421    1.0480    1.1023 H   0  0  0  0  0  0  0  0  0  0  0  0
   -8.0590    0.5265    2.2656 H   0  0  0  0  0  0  0  0  0  0  0  0
   -9.9684   -1.0246    3.3838 H   0  0  0  0  0  0  0  0  0  0  0  0
   -9.3089   -3.5513    2.8758 H   0  0  0  0  0  0  0  0  0  0  0  0
    1.3518    0.6822    2.1844 H   0  0  0  0  0  0  0  0  0  0  0  0
    4.0982    0.3277    2.0992 H   0  0  0  0  0  0  0  0  0  0  0  0
    4.5180   -2.3123    0.9816 H   0  0  0  0  0  0  0  0  0  0  0  0
    5.8064   -1.1901    1.5386 H   0  0  0  0  0  0  0  0  0  0  0  0
    4.4327   -1.1234   -1.2262 H   0  0  0  0  0  0  0  0  0  0  0  0
    6.0532   -2.9985   -0.7127 H   0  0  0  0  0  0  0  0  0  0  0  0
    6.3667   -1.9469   -2.1176 H   0  0  0  0  0  0  0  0  0  0  0  0
    8.4243   -2.3373   -0.8878 H   0  0  0  0  0  0  0  0  0  0  0  0
    7.5859   -1.9000    0.6994 H   0  0  0  0  0  0  0  0  0  0  0  0
    9.0449   -0.1546    0.1115 H   0  0  0  0  0  0  0  0  0  0  0  0
    8.2878    0.0458   -1.5751 H   0  0  0  0  0  0  0  0  0  0  0  0
    7.3268    1.7149   -0.1272 H   0  0  0  0  0  0  0  0  0  0  0  0
    6.9483    0.5174    1.1314 H   0  0  0  0  0  0  0  0  0  0  0  0
    5.0066    1.1632   -0.4936 H   0  0  0  0  0  0  0  0  0  0  0  0
    6.0271    0.5228   -1.7877 H   0  0  0  0  0  0  0  0  0  0  0  0
    1.6599    2.9467    1.4472 H   0  0  0  0  0  0  0  0  0  0  0  0
    3.2237    2.1442    1.7284 H   0  0  0  0  0  0  0  0  0  0  0  0
    2.6332    2.4557    0.0383 H   0  0  0  0  0  0  0  0  0  0  0  0
  1  2  1  0
  2  3  1  0
  3  4  2  0
  4  5  1  0
  5  6  1  0
  4  7  1  0
  7  8  2  0
  8  9  1  0
  9 10  2  0
 10 11  1  0
 11 12  1  0
 12 13  2  0
 12 14  1  0
 14 15  2  0
 15 16  1  0
 16 17  2  0
 17 18  1  0
  8 19  1  0
 19 20  2  0
 19 21  1  0
 21 22  1  0
 22 23  1  0
 23 24  2  0
 23 25  1  0
 25 26  1  0
 26 27  1  0
 27 28  1  0
 28 29  1  0
 29 30  1  0
 30 31  1  0
 31 32  1  0
 22 33  1  0
 10  3  1  0
 18 14  1  0
 32 27  1  0
  1 34  1  0
  1 35  1  0
  1 36  1  0
  6 37  1  0
  6 38  1  0
  6 39  1  0
  7 40  1  0
  9 41  1  0
 11 42  1  0
 15 43  1  0
 16 44  1  0
 17 45  1  0
 22 46  1  0
 25 47  1  0
 26 48  1  0
 26 49  1  0
 27 50  1  0
 28 51  1  0
 28 52  1  0
 29 53  1  0
 29 54  1  0
 30 55  1  0
 30 56  1  0
 31 57  1  0
 31 58  1  0
 32 59  1  0
 32 60  1  0
 33 61  1  0
 33 62  1  0
 33 63  1  0
M  END
>  <Ligand ID>  (1) 
LIG0003371

>  <Ligand>  (1) 
SMR000150437

>  <SMILES>  (1) 
COc1c(OC)cc(cc1NC(=O)c1ccco1)C(=O)OC(C(=O)NCC1CCCCC1)C

>  <CID>  (1) 
3331437.0

>  <ChEMBL ID>  (1) 
nan

>  <InChiKey>  (1) 
UOSWLYXEFYSVFV-UHFFFAOYSA-N

>  <InChi>  (1) 
InChI=1S/C24H30N2O7/c1-15(22(27)25-14-16-8-5-4-6-9-16)33-24(29)17-12-18(21(31-3)20(13-17)30-2)26-23(28)19-10-7-11-32-19/h7,10-13,15-16H,4-6,8-9,14H2,1-3H3,(H,25,27)(H,26,28)

>  <IUPAC Name>  (1) 
[1-(cyclohexylmethylamino)-1-oxopropan-2-yl] 3-(furan-2-carbonylamino)-4,5-dimethoxybenzoate

$$$$
