
     RDKit          3D

 41 42  0  0  0  0  0  0  0  0999 V2000
   -4.6211    2.7719    0.0497 C   0  0  0  0  0  0  0  0  0  0  0  0
   -3.9305    1.4398   -0.3699 C   0  0  0  0  0  0  0  0  0  0  0  0
   -3.7154    0.6792    0.8744 C   0  0  0  0  0  0  0  0  0  0  0  0
   -3.1218   -0.6699    0.8399 C   0  0  0  0  0  0  0  0  0  0  0  0
   -1.8810   -0.8802    0.2978 O   0  0  0  0  0  0  0  0  0  0  0  0
   -1.5296   -0.7937   -0.9878 C   0  0  0  0  0  0  0  0  0  0  0  0
   -2.4468   -0.4976   -1.8361 O   0  0  0  0  0  0  0  0  0  0  0  0
   -0.2100   -0.9945   -1.5783 C   0  0  0  0  0  0  0  0  0  0  0  0
   -0.0329   -0.8528   -2.9512 C   0  0  0  0  0  0  0  0  0  0  0  0
    1.1732   -1.0200   -3.5858 C   0  0  0  0  0  0  0  0  0  0  0  0
    2.2922   -1.3465   -2.8567 C   0  0  0  0  0  0  0  0  0  0  0  0
    2.1227   -1.4892   -1.4901 C   0  0  0  0  0  0  0  0  0  0  0  0
    0.9131   -1.3212   -0.8532 C   0  0  0  0  0  0  0  0  0  0  0  0
    0.8770   -1.5181    0.5446 N   0  0  0  0  0  0  0  0  0  0  0  0
    2.0584   -1.8442    1.3419 C   0  0  0  0  0  0  0  0  0  0  0  0
    3.0232   -0.7051    1.4301 C   0  0  0  0  0  0  0  0  0  0  0  0
    4.2839   -0.6712    1.1897 N   0  0  0  0  0  0  0  0  0  0  0  0
    4.8124    0.6524    1.4094 C   0  0  0  0  0  0  0  0  0  0  0  0
    3.5786    1.5250    1.3518 C   0  0  0  0  0  0  0  0  0  0  0  0
    2.5673    0.5971    1.8620 N   0  0  0  0  0  0  0  0  0  0  0  0
   -4.0469    3.1523    0.9084 H   0  0  0  0  0  0  0  0  0  0  0  0
   -5.6219    2.4630    0.4074 H   0  0  0  0  0  0  0  0  0  0  0  0
   -4.6198    3.4823   -0.7833 H   0  0  0  0  0  0  0  0  0  0  0  0
   -2.9694    1.8231   -0.8264 H   0  0  0  0  0  0  0  0  0  0  0  0
   -4.6136    0.9885   -1.0978 H   0  0  0  0  0  0  0  0  0  0  0  0
   -3.1084    1.3188    1.5729 H   0  0  0  0  0  0  0  0  0  0  0  0
   -4.7464    0.5468    1.3417 H   0  0  0  0  0  0  0  0  0  0  0  0
   -3.8973   -1.4107    0.4262 H   0  0  0  0  0  0  0  0  0  0  0  0
   -3.0922   -1.0134    1.9343 H   0  0  0  0  0  0  0  0  0  0  0  0
   -0.8766   -0.5926   -3.6109 H   0  0  0  0  0  0  0  0  0  0  0  0
    1.2871   -0.9040   -4.6590 H   0  0  0  0  0  0  0  0  0  0  0  0
    3.2456   -1.4829   -3.3251 H   0  0  0  0  0  0  0  0  0  0  0  0
    3.0124   -1.7574   -0.9384 H   0  0  0  0  0  0  0  0  0  0  0  0
   -0.0035   -1.4480    1.1292 H   0  0  0  0  0  0  0  0  0  0  0  0
    1.7996   -2.2284    2.3482 H   0  0  0  0  0  0  0  0  0  0  0  0
    2.5776   -2.7179    0.8415 H   0  0  0  0  0  0  0  0  0  0  0  0
    5.4719    0.9657    0.5741 H   0  0  0  0  0  0  0  0  0  0  0  0
    5.3264    0.7475    2.3877 H   0  0  0  0  0  0  0  0  0  0  0  0
    3.2984    1.7488    0.3037 H   0  0  0  0  0  0  0  0  0  0  0  0
    3.6559    2.4432    1.9354 H   0  0  0  0  0  0  0  0  0  0  0  0
    1.7080    0.8144    2.4135 H   0  0  0  0  0  0  0  0  0  0  0  0
  1  2  1  0
  2  3  1  0
  3  4  1  0
  4  5  1  0
  5  6  1  0
  6  7  2  0
  6  8  1  0
  8  9  2  0
  9 10  1  0
 10 11  2  0
 11 12  1  0
 12 13  2  0
 13 14  1  0
 14 15  1  0
 15 16  1  0
 16 17  2  0
 17 18  1  0
 18 19  1  0
 19 20  1  0
 13  8  1  0
 20 16  1  0
  1 21  1  0
  1 22  1  0
  1 23  1  0
  2 24  1  0
  2 25  1  0
  3 26  1  0
  3 27  1  0
  4 28  1  0
  4 29  1  0
  9 30  1  0
 10 31  1  0
 11 32  1  0
 12 33  1  0
 14 34  1  0
 15 35  1  0
 15 36  1  0
 18 37  1  0
 18 38  1  0
 19 39  1  0
 19 40  1  0
 20 41  1  0
M  END
>  <Ligand ID>  (1) 
LIG0004331

>  <Ligand>  (1) 
CHEMBL99559

>  <SMILES>  (1) 
CCCCOC(=O)c1ccccc1NCC1=NCCN1

>  <CID>  (1) 
44329796.0

>  <ChEMBL ID>  (1) 
nan

>  <InChiKey>  (1) 
PGTTUJMHQDYCRX-UHFFFAOYSA-N

>  <InChi>  (1) 
InChI=1S/C15H21N3O2/c1-2-3-10-20-15(19)12-6-4-5-7-13(12)18-11-14-16-8-9-17-14/h4-7,18H,2-3,8-11H2,1H3,(H,16,17)

>  <IUPAC Name>  (1) 
butyl 2-(4,5-dihydro-1H-imidazol-2-ylmethylamino)benzoate

$$$$
