
     RDKit          3D

 46 45  0  0  0  0  0  0  0  0999 V2000
   -6.6260   -0.3389    0.2560 C   0  0  0  0  0  0  0  0  0  0  0  0
   -6.1465    0.7874   -0.6394 C   0  0  0  0  0  0  0  0  0  0  0  0
   -5.0571    1.5619    0.0567 C   0  0  0  0  0  0  0  0  0  0  0  0
   -3.8554    0.7046    0.3967 C   0  0  0  0  0  0  0  0  0  0  0  0
   -3.1881    0.0856   -0.7843 C   0  0  0  0  0  0  0  0  0  0  0  0
   -2.0076   -0.7588   -0.3437 C   0  0  0  0  0  0  0  0  0  0  0  0
   -0.9973    0.0742    0.3927 C   0  0  0  0  0  0  0  0  0  0  0  0
    0.1586   -0.7967    0.8072 C   0  0  0  0  0  0  0  0  0  0  0  0
    0.1083   -1.9669    0.4850 O   0  0  0  0  0  0  0  0  0  0  0  0
    1.2540   -0.1666    1.5676 C   0  0  0  0  0  0  0  0  0  0  0  0
    2.5539   -0.0523    0.7744 C   0  0  0  0  0  0  0  0  0  0  0  0
    3.1152   -1.3523    0.3434 C   0  0  0  0  0  0  0  0  0  0  0  0
    4.3407   -1.3879   -0.4673 C   0  0  0  0  0  0  0  0  0  0  0  0
    5.6192   -0.8554    0.0055 C   0  0  0  0  0  0  0  0  0  0  0  0
    5.7780    0.5787    0.3159 C   0  0  0  0  0  0  0  0  0  0  0  0
    5.4545    1.4708   -0.8929 C   0  0  0  0  0  0  0  0  0  0  0  0
   -6.9569    0.1293    1.2196 H   0  0  0  0  0  0  0  0  0  0  0  0
   -5.8634   -1.1157    0.4282 H   0  0  0  0  0  0  0  0  0  0  0  0
   -7.5267   -0.7666   -0.2089 H   0  0  0  0  0  0  0  0  0  0  0  0
   -7.0075    1.4349   -0.8108 H   0  0  0  0  0  0  0  0  0  0  0  0
   -5.7815    0.3818   -1.5904 H   0  0  0  0  0  0  0  0  0  0  0  0
   -4.7336    2.4200   -0.5548 H   0  0  0  0  0  0  0  0  0  0  0  0
   -5.4173    1.9658    1.0223 H   0  0  0  0  0  0  0  0  0  0  0  0
   -4.2067   -0.0823    1.0948 H   0  0  0  0  0  0  0  0  0  0  0  0
   -3.1458    1.3907    0.9142 H   0  0  0  0  0  0  0  0  0  0  0  0
   -2.7803    0.9022   -1.4466 H   0  0  0  0  0  0  0  0  0  0  0  0
   -3.8811   -0.4775   -1.4212 H   0  0  0  0  0  0  0  0  0  0  0  0
   -1.5620   -1.2839   -1.2248 H   0  0  0  0  0  0  0  0  0  0  0  0
   -2.3463   -1.5511    0.3632 H   0  0  0  0  0  0  0  0  0  0  0  0
   -1.4629    0.3919    1.3526 H   0  0  0  0  0  0  0  0  0  0  0  0
   -0.6263    0.9231   -0.1837 H   0  0  0  0  0  0  0  0  0  0  0  0
    1.5180   -0.7443    2.4865 H   0  0  0  0  0  0  0  0  0  0  0  0
    0.9438    0.8458    1.8838 H   0  0  0  0  0  0  0  0  0  0  0  0
    3.2629    0.3750    1.5376 H   0  0  0  0  0  0  0  0  0  0  0  0
    2.3627    0.5941   -0.0777 H   0  0  0  0  0  0  0  0  0  0  0  0
    3.2126   -2.0617    1.2408 H   0  0  0  0  0  0  0  0  0  0  0  0
    2.2908   -1.8733   -0.2501 H   0  0  0  0  0  0  0  0  0  0  0  0
    4.0596   -0.9981   -1.4964 H   0  0  0  0  0  0  0  0  0  0  0  0
    4.5432   -2.4920   -0.7191 H   0  0  0  0  0  0  0  0  0  0  0  0
    6.3927   -1.1124   -0.7753 H   0  0  0  0  0  0  0  0  0  0  0  0
    5.9335   -1.4915    0.8969 H   0  0  0  0  0  0  0  0  0  0  0  0
    6.9147    0.7087    0.5169 H   0  0  0  0  0  0  0  0  0  0  0  0
    5.3277    1.0125    1.1837 H   0  0  0  0  0  0  0  0  0  0  0  0
    5.4588    2.5134   -0.5121 H   0  0  0  0  0  0  0  0  0  0  0  0
    6.1640    1.2810   -1.7058 H   0  0  0  0  0  0  0  0  0  0  0  0
    4.4091    1.1928   -1.1749 H   0  0  0  0  0  0  0  0  0  0  0  0
  1  2  1  0
  2  3  1  0
  3  4  1  0
  4  5  1  0
  5  6  1  0
  6  7  1  0
  7  8  1  0
  8  9  2  0
  8 10  1  0
 10 11  1  0
 11 12  1  0
 12 13  1  0
 13 14  1  0
 14 15  1  0
 15 16  1  0
  1 17  1  0
  1 18  1  0
  1 19  1  0
  2 20  1  0
  2 21  1  0
  3 22  1  0
  3 23  1  0
  4 24  1  0
  4 25  1  0
  5 26  1  0
  5 27  1  0
  6 28  1  0
  6 29  1  0
  7 30  1  0
  7 31  1  0
 10 32  1  0
 10 33  1  0
 11 34  1  0
 11 35  1  0
 12 36  1  0
 12 37  1  0
 13 38  1  0
 13 39  1  0
 14 40  1  0
 14 41  1  0
 15 42  1  0
 15 43  1  0
 16 44  1  0
 16 45  1  0
 16 46  1  0
M  END
>  <Ligand ID>  (1) 
LIG0000465

>  <Ligand>  (1) 
8-pentadecanone

>  <SMILES>  (1) 
CCCCCCCC(=O)CCCCCCC

>  <CID>  (1) 
13162.0

>  <ChEMBL ID>  (1) 
nan

>  <InChiKey>  (1) 
PQYGSSYFJIJDFK-UHFFFAOYSA-N

>  <InChi>  (1) 
InChI=1S/C15H30O/c1-3-5-7-9-11-13-15(16)14-12-10-8-6-4-2/h3-14H2,1-2H3

>  <IUPAC Name>  (1) 
pentadecan-8-one

$$$$
