
     RDKit          3D

 58 60  0  0  0  0  0  0  0  0999 V2000
   -8.0376    3.0597   -0.0721 C   0  0  0  0  0  0  0  0  0  0  0  0
   -7.6038    2.0587    0.7994 O   0  0  0  0  0  0  0  0  0  0  0  0
   -6.7405    1.0820    0.3605 C   0  0  0  0  0  0  0  0  0  0  0  0
   -6.2493    1.0157   -0.9364 C   0  0  0  0  0  0  0  0  0  0  0  0
   -5.3741   -0.0045   -1.3170 C   0  0  0  0  0  0  0  0  0  0  0  0
   -4.9872   -0.9623   -0.4009 C   0  0  0  0  0  0  0  0  0  0  0  0
   -5.4889   -0.8852    0.9036 C   0  0  0  0  0  0  0  0  0  0  0  0
   -6.3538    0.1207    1.2848 C   0  0  0  0  0  0  0  0  0  0  0  0
   -3.9024   -2.2708   -0.7784 S   0  0  0  0  0  0  0  0  0  0  0  0
   -4.2381   -3.4357    0.1110 O   0  0  0  0  0  0  0  0  0  0  0  0
   -4.0621   -2.7416   -2.1940 O   0  0  0  0  0  0  0  0  0  0  0  0
   -2.2614   -1.8585   -0.4979 N   0  0  0  0  0  0  0  0  0  0  0  0
   -2.0059   -1.5418    0.8741 C   0  0  0  0  0  0  0  0  0  0  0  0
   -0.5339   -1.4770    1.1519 C   0  0  0  0  0  0  0  0  0  0  0  0
    0.2696   -0.7441    0.1296 C   0  0  0  0  0  0  0  0  0  0  0  0
   -0.2352   -0.8478   -1.2739 C   0  0  0  0  0  0  0  0  0  0  0  0
   -1.7596   -0.8119   -1.3323 C   0  0  0  0  0  0  0  0  0  0  0  0
    1.6146   -1.3082    0.1671 N   0  0  0  0  0  0  0  0  0  0  0  0
    2.4346   -0.6137   -0.8240 C   0  0  0  0  0  0  0  0  0  0  0  0
    3.8288   -1.2745   -0.7110 C   0  0  1  0  0  0  0  0  0  0  0  0
    4.1816   -1.1581    0.7540 C   0  0  0  0  0  0  0  0  0  0  0  0
    4.4870    0.0898    1.2220 O   0  0  0  0  0  0  0  0  0  0  0  0
    5.5207    0.8700    0.8610 C   0  0  0  0  0  0  0  0  0  0  0  0
    6.5185    0.5856   -0.0383 C   0  0  0  0  0  0  0  0  0  0  0  0
    7.5448    1.4772   -0.3399 C   0  0  0  0  0  0  0  0  0  0  0  0
    7.6006    2.7111    0.2690 C   0  0  0  0  0  0  0  0  0  0  0  0
    6.6185    3.0186    1.1697 C   0  0  0  0  0  0  0  0  0  0  0  0
    5.6069    2.1357    1.4643 C   0  0  0  0  0  0  0  0  0  0  0  0
    8.6455    3.5570   -0.0707 O   0  0  0  0  0  0  0  0  0  0  0  0
    3.5617   -2.6337   -1.0166 O   0  0  0  0  0  0  0  0  0  0  0  0
   -8.9008    3.5695    0.3930 H   0  0  0  0  0  0  0  0  0  0  0  0
   -8.3437    2.6655   -1.0577 H   0  0  0  0  0  0  0  0  0  0  0  0
   -7.2023    3.8019   -0.2129 H   0  0  0  0  0  0  0  0  0  0  0  0
   -6.5587    1.7712   -1.6465 H   0  0  0  0  0  0  0  0  0  0  0  0
   -4.9807   -0.0711   -2.3266 H   0  0  0  0  0  0  0  0  0  0  0  0
   -5.1838   -1.6446    1.6348 H   0  0  0  0  0  0  0  0  0  0  0  0
   -6.7127    0.1305    2.3147 H   0  0  0  0  0  0  0  0  0  0  0  0
   -2.5109   -0.6050    1.2141 H   0  0  0  0  0  0  0  0  0  0  0  0
   -2.3937   -2.4136    1.4704 H   0  0  0  0  0  0  0  0  0  0  0  0
   -0.1085   -2.4796    1.3409 H   0  0  0  0  0  0  0  0  0  0  0  0
   -0.4260   -0.9200    2.1202 H   0  0  0  0  0  0  0  0  0  0  0  0
    0.3541    0.3413    0.4195 H   0  0  0  0  0  0  0  0  0  0  0  0
    0.2004   -1.6904   -1.8224 H   0  0  0  0  0  0  0  0  0  0  0  0
    0.1049    0.0762   -1.8101 H   0  0  0  0  0  0  0  0  0  0  0  0
   -2.0523   -0.8882   -2.3849 H   0  0  0  0  0  0  0  0  0  0  0  0
   -2.0520    0.1566   -0.8604 H   0  0  0  0  0  0  0  0  0  0  0  0
    1.5625   -2.3233   -0.0436 H   0  0  0  0  0  0  0  0  0  0  0  0
    2.0336   -0.7269   -1.8344 H   0  0  0  0  0  0  0  0  0  0  0  0
    2.4863    0.4571   -0.5845 H   0  0  0  0  0  0  0  0  0  0  0  0
    4.5046   -0.8066   -1.4093 H   0  0  0  0  0  0  0  0  0  0  0  0
    3.3321   -1.5496    1.3896 H   0  0  0  0  0  0  0  0  0  0  0  0
    4.9994   -1.9210    0.9562 H   0  0  0  0  0  0  0  0  0  0  0  0
    6.5616   -0.3603   -0.5443 H   0  0  0  0  0  0  0  0  0  0  0  0
    8.3185    1.2028   -1.0664 H   0  0  0  0  0  0  0  0  0  0  0  0
    6.6563    3.9813    1.6496 H   0  0  0  0  0  0  0  0  0  0  0  0
    4.8585    2.4538    2.1950 H   0  0  0  0  0  0  0  0  0  0  0  0
    9.5767    3.2615    0.2046 H   0  0  0  0  0  0  0  0  0  0  0  0
    3.2770   -2.6813   -1.9618 H   0  0  0  0  0  0  0  0  0  0  0  0
  1  2  1  0
  2  3  1  0
  3  4  2  0
  4  5  1  0
  5  6  2  0
  6  7  1  0
  7  8  2  0
  6  9  1  0
  9 10  2  0
  9 11  2  0
  9 12  1  0
 12 13  1  0
 13 14  1  0
 14 15  1  0
 15 16  1  0
 16 17  1  0
 15 18  1  0
 18 19  1  0
 19 20  1  0
 20 21  1  0
 21 22  1  0
 22 23  1  0
 23 24  2  0
 24 25  1  0
 25 26  2  0
 26 27  1  0
 27 28  2  0
 26 29  1  0
 20 30  1  0
  8  3  1  0
 17 12  1  0
 28 23  1  0
  1 31  1  0
  1 32  1  0
  1 33  1  0
  4 34  1  0
  5 35  1  0
  7 36  1  0
  8 37  1  0
 13 38  1  0
 13 39  1  0
 14 40  1  0
 14 41  1  0
 15 42  1  0
 16 43  1  0
 16 44  1  0
 17 45  1  0
 17 46  1  0
 18 47  1  0
 19 48  1  0
 19 49  1  0
 20 50  1  6
 21 51  1  0
 21 52  1  0
 24 53  1  0
 25 54  1  0
 27 55  1  0
 28 56  1  0
 29 57  1  0
 30 58  1  0
M  END
>  <Ligand ID>  (1) 
LIG0004826

>  <Ligand>  (1) 
CHEMBL71348

>  <SMILES>  (1) 
COc1ccc(cc1)S(=O)(=O)N1CCC(CC1)NC[C@@H](COc1ccc(cc1)O)O

>  <CID>  (1) 
44309649.0

>  <ChEMBL ID>  (1) 
nan

>  <InChiKey>  (1) 
FAGYXUDVGKSFIX-SFHVURJKSA-N

>  <InChi>  (1) 
InChI=1S/C21H28N2O6S/c1-28-19-6-8-21(9-7-19)30(26,27)23-12-10-16(11-13-23)22-14-18(25)15-29-20-4-2-17(24)3-5-20/h2-9,16,18,22,24-25H,10-15H2,1H3/t18-/m0/s1

>  <IUPAC Name>  (1) 
4-[(2S)-2-hydroxy-3-[[1-(4-methoxyphenyl)sulfonylpiperidin-4-yl]amino]propoxy]phenol

$$$$
