
     RDKit          3D

 43 46  0  0  0  0  0  0  0  0999 V2000
   -5.7574   -1.4484   -1.0174 O   0  0  0  0  0  0  0  0  0  0  0  0
   -4.4175   -1.6335   -0.7199 C   0  0  0  0  0  0  0  0  0  0  0  0
   -3.7180   -0.2874   -0.8446 C   0  0  0  0  0  0  0  0  0  0  0  0
   -2.3181   -0.5018   -0.5297 N   0  0  0  0  0  0  0  0  0  0  0  0
   -1.4433    0.5914   -0.5711 C   0  0  0  0  0  0  0  0  0  0  0  0
   -1.9135    1.7313   -0.8842 O   0  0  0  0  0  0  0  0  0  0  0  0
   -0.0230    0.4584   -0.2680 C   0  0  0  0  0  0  0  0  0  0  0  0
    0.6266   -0.6712    0.0782 N   0  0  0  0  0  0  0  0  0  0  0  0
    1.9064   -0.4192    0.2791 N   0  0  0  0  0  0  0  0  0  0  0  0
    2.1263    0.8911    0.0677 C   0  0  0  0  0  0  0  0  0  0  0  0
    0.9097    1.4758   -0.2834 C   0  0  0  0  0  0  0  0  0  0  0  0
    1.0994    2.9293   -0.5286 C   0  0  0  0  0  0  0  0  0  0  0  0
    2.5817    3.1254   -0.4426 C   0  0  2  0  0  0  0  0  0  0  0  0
    3.2027    1.8895    0.0840 C   0  0  1  0  0  0  0  0  0  0  0  0
    3.1036    3.0968    0.9835 C   0  0  0  0  0  0  0  0  0  0  0  0
    2.8853   -1.3801    0.6568 C   0  0  0  0  0  0  0  0  0  0  0  0
    2.5304   -2.6072    1.1783 C   0  0  0  0  0  0  0  0  0  0  0  0
    3.4679   -3.5556    1.5517 C   0  0  0  0  0  0  0  0  0  0  0  0
    4.8109   -3.2514    1.3917 C   0  0  0  0  0  0  0  0  0  0  0  0
    5.1685   -2.0188    0.8679 C   0  0  0  0  0  0  0  0  0  0  0  0
    4.2074   -1.1422    0.5251 N   0  0  0  0  0  0  0  0  0  0  0  0
   -4.3703    0.6587    0.1550 C   0  0  0  0  0  0  0  0  0  0  0  0
   -3.9328    0.2572   -2.2256 C   0  0  0  0  0  0  0  0  0  0  0  0
   -6.3791   -1.9369   -0.4235 H   0  0  0  0  0  0  0  0  0  0  0  0
   -3.9684   -2.3456   -1.4623 H   0  0  0  0  0  0  0  0  0  0  0  0
   -4.3068   -2.0141    0.3255 H   0  0  0  0  0  0  0  0  0  0  0  0
   -1.9332   -1.4368   -0.2730 H   0  0  0  0  0  0  0  0  0  0  0  0
    0.7754    3.2374   -1.5546 H   0  0  0  0  0  0  0  0  0  0  0  0
    0.5417    3.5257    0.2264 H   0  0  0  0  0  0  0  0  0  0  0  0
    3.1442    3.6490   -1.2309 H   0  0  0  0  0  0  0  0  0  0  0  0
    4.2077    1.5477   -0.2278 H   0  0  0  0  0  0  0  0  0  0  0  0
    4.0554    3.6225    1.1985 H   0  0  0  0  0  0  0  0  0  0  0  0
    2.3938    3.1145    1.8207 H   0  0  0  0  0  0  0  0  0  0  0  0
    1.4817   -2.8212    1.2933 H   0  0  0  0  0  0  0  0  0  0  0  0
    3.2233   -4.5144    1.9584 H   0  0  0  0  0  0  0  0  0  0  0  0
    5.5890   -3.9551    1.6668 H   0  0  0  0  0  0  0  0  0  0  0  0
    6.1890   -1.7107    0.7142 H   0  0  0  0  0  0  0  0  0  0  0  0
   -3.9709    0.4930    1.1768 H   0  0  0  0  0  0  0  0  0  0  0  0
   -4.2627    1.6889   -0.2187 H   0  0  0  0  0  0  0  0  0  0  0  0
   -5.4634    0.4422    0.1959 H   0  0  0  0  0  0  0  0  0  0  0  0
   -3.8222    1.3780   -2.2117 H   0  0  0  0  0  0  0  0  0  0  0  0
   -3.2434   -0.2052   -2.9632 H   0  0  0  0  0  0  0  0  0  0  0  0
   -4.9843    0.0530   -2.5146 H   0  0  0  0  0  0  0  0  0  0  0  0
  1  2  1  0
  2  3  1  0
  3  4  1  0
  4  5  1  0
  5  6  2  0
  5  7  1  0
  7  8  2  0
  8  9  1  0
  9 10  1  0
 10 11  2  0
 11 12  1  0
 12 13  1  0
 13 14  1  0
 14 15  1  0
  9 16  1  0
 16 17  2  0
 17 18  1  0
 18 19  2  0
 19 20  1  0
 20 21  2  0
  3 22  1  0
  3 23  1  0
 11  7  1  0
 15 13  1  0
 21 16  1  0
 14 10  1  0
  1 24  1  0
  2 25  1  0
  2 26  1  0
  4 27  1  0
 12 28  1  0
 12 29  1  0
 13 30  1  6
 14 31  1  6
 15 32  1  0
 15 33  1  0
 17 34  1  0
 18 35  1  0
 19 36  1  0
 20 37  1  0
 22 38  1  0
 22 39  1  0
 22 40  1  0
 23 41  1  0
 23 42  1  0
 23 43  1  0
M  END
>  <Ligand ID>  (1) 
LIG0001497

>  <Ligand>  (1) 
CHEMBL3354974

>  <SMILES>  (1) 
OCC(NC(=O)c1nn(c2c1C[C@@H]1[C@H]2C1)c1ccccn1)(C)C

>  <CID>  (1) 
118720581.0

>  <ChEMBL ID>  (1) 
nan

>  <InChiKey>  (1) 
PUDMSDVHALBQJY-GHMZBOCLSA-N

>  <InChi>  (1) 
InChI=1S/C17H20N4O2/c1-17(2,9-22)19-16(23)14-12-8-10-7-11(10)15(12)21(20-14)13-5-3-4-6-18-13/h3-6,10-11,22H,7-9H2,1-2H3,(H,19,23)/t10-,11-/m1/s1

>  <IUPAC Name>  (1) 
(2R,4R)-N-(1-hydroxy-2-methylpropan-2-yl)-9-pyridin-2-yl-8,9-diazatricyclo[4.3.0.02,4]nona-1(6),7-diene-7-carboxamide

$$$$
