
     RDKit          3D

 51 54  0  0  0  0  0  0  0  0999 V2000
    0.9615    1.4293    0.1199 C   0  0  0  0  0  0  0  0  0  0  0  0
    0.5812    0.1115   -0.5194 C   0  0  2  0  0  0  0  0  0  0  0  0
   -0.3487   -0.5945    0.4660 C   0  0  0  0  0  0  0  0  0  0  0  0
   -0.8600   -1.8170   -0.0506 N   0  0  0  0  0  0  0  0  0  0  0  0
    0.2006   -2.6765   -0.5185 C   0  0  0  0  0  0  0  0  0  0  0  0
    1.5736   -2.1137   -0.2304 C   0  0  0  0  0  0  0  0  0  0  0  0
    1.7739   -0.7633   -0.8352 C   0  0  2  0  0  0  0  0  0  0  0  0
    3.0564   -0.1976   -0.3586 C   0  0  0  0  0  0  0  0  0  0  0  0
    3.3086    0.0622    0.9784 C   0  0  0  0  0  0  0  0  0  0  0  0
    4.5063    0.5913    1.4230 C   0  0  0  0  0  0  0  0  0  0  0  0
    5.5153    0.8854    0.5285 C   0  0  0  0  0  0  0  0  0  0  0  0
    5.2922    0.6370   -0.8100 C   0  0  0  0  0  0  0  0  0  0  0  0
    4.0909    0.1087   -1.2363 C   0  0  0  0  0  0  0  0  0  0  0  0
    6.7895    1.4530    1.0413 C   0  0  0  0  0  0  0  0  0  0  0  0
    7.8715    1.1539    0.2737 F   0  0  0  0  0  0  0  0  0  0  0  0
    6.6346    2.8353    1.1283 F   0  0  0  0  0  0  0  0  0  0  0  0
    6.9601    1.0291    2.3573 F   0  0  0  0  0  0  0  0  0  0  0  0
   -1.9260   -1.7228   -0.9922 C   0  0  0  0  0  0  0  0  0  0  0  0
   -3.1449   -1.0605   -0.5170 C   0  0  0  0  0  0  0  0  0  0  0  0
   -4.1629   -1.6967    0.1341 N   0  0  0  0  0  0  0  0  0  0  0  0
   -5.1449   -0.8288    0.4359 C   0  0  0  0  0  0  0  0  0  0  0  0
   -4.7406    0.4018   -0.0382 C   0  0  0  0  0  0  0  0  0  0  0  0
   -3.5225    0.2159   -0.6089 N   0  0  0  0  0  0  0  0  0  0  0  0
   -2.7929    1.3009   -1.2229 C   0  0  0  0  0  0  0  0  0  0  0  0
   -5.5497    1.4946    0.1274 C   0  0  0  0  0  0  0  0  0  0  0  0
   -6.7697    1.3260    0.7772 C   0  0  0  0  0  0  0  0  0  0  0  0
   -7.1304    0.0550    1.2382 C   0  0  0  0  0  0  0  0  0  0  0  0
   -6.3206   -1.0120    1.0666 N   0  0  0  0  0  0  0  0  0  0  0  0
    0.8091    1.4064    1.2104 H   0  0  0  0  0  0  0  0  0  0  0  0
    1.9661    1.7790   -0.2009 H   0  0  0  0  0  0  0  0  0  0  0  0
    0.2671    2.2421   -0.2396 H   0  0  0  0  0  0  0  0  0  0  0  0
    0.0280    0.3578   -1.4485 H   0  0  0  0  0  0  0  0  0  0  0  0
    0.2985   -0.8353    1.3537 H   0  0  0  0  0  0  0  0  0  0  0  0
   -1.1109    0.1050    0.7960 H   0  0  0  0  0  0  0  0  0  0  0  0
    0.1463   -2.8274   -1.6256 H   0  0  0  0  0  0  0  0  0  0  0  0
    0.0892   -3.6495   -0.0321 H   0  0  0  0  0  0  0  0  0  0  0  0
    2.2803   -2.8237   -0.7526 H   0  0  0  0  0  0  0  0  0  0  0  0
    1.8183   -2.1208    0.8474 H   0  0  0  0  0  0  0  0  0  0  0  0
    1.8453   -0.8771   -1.9339 H   0  0  0  0  0  0  0  0  0  0  0  0
    2.5661   -0.1445    1.7216 H   0  0  0  0  0  0  0  0  0  0  0  0
    4.6455    0.7746    2.4963 H   0  0  0  0  0  0  0  0  0  0  0  0
    6.1066    0.8796   -1.4894 H   0  0  0  0  0  0  0  0  0  0  0  0
    3.9819   -0.0614   -2.2990 H   0  0  0  0  0  0  0  0  0  0  0  0
   -1.5658   -1.3075   -1.9695 H   0  0  0  0  0  0  0  0  0  0  0  0
   -2.2022   -2.7854   -1.2574 H   0  0  0  0  0  0  0  0  0  0  0  0
   -2.2057    0.9332   -2.0881 H   0  0  0  0  0  0  0  0  0  0  0  0
   -3.5235    2.0278   -1.6889 H   0  0  0  0  0  0  0  0  0  0  0  0
   -2.1893    1.8165   -0.4776 H   0  0  0  0  0  0  0  0  0  0  0  0
   -5.2388    2.4668   -0.2427 H   0  0  0  0  0  0  0  0  0  0  0  0
   -7.4461    2.1550    0.9343 H   0  0  0  0  0  0  0  0  0  0  0  0
   -8.0683   -0.1188    1.7474 H   0  0  0  0  0  0  0  0  0  0  0  0
  1  2  1  0
  2  3  1  0
  3  4  1  0
  4  5  1  0
  5  6  1  0
  6  7  1  0
  7  8  1  0
  8  9  2  0
  9 10  1  0
 10 11  2  0
 11 12  1  0
 12 13  2  0
 11 14  1  0
 14 15  1  0
 14 16  1  0
 14 17  1  0
  4 18  1  0
 18 19  1  0
 19 20  2  0
 20 21  1  0
 21 22  2  0
 22 23  1  0
 23 24  1  0
 22 25  1  0
 25 26  2  0
 26 27  1  0
 27 28  2  0
  7  2  1  0
 13  8  1  0
 23 19  1  0
 28 21  1  0
  1 29  1  0
  1 30  1  0
  1 31  1  0
  2 32  1  6
  3 33  1  0
  3 34  1  0
  5 35  1  0
  5 36  1  0
  6 37  1  0
  6 38  1  0
  7 39  1  6
  9 40  1  0
 10 41  1  0
 12 42  1  0
 13 43  1  0
 18 44  1  0
 18 45  1  0
 24 46  1  0
 24 47  1  0
 24 48  1  0
 25 49  1  0
 26 50  1  0
 27 51  1  0
M  END
>  <Ligand ID>  (1) 
LIG0005265

>  <Ligand>  (1) 
CHEMBL1774228

>  <SMILES>  (1) 
C[C@@H]1CN(CC[C@@H]1c1ccc(cc1)C(F)(F)F)Cc1nc2c(n1C)cccn2

>  <CID>  (1) 
51353704.0

>  <ChEMBL ID>  (1) 
nan

>  <InChiKey>  (1) 
IORJDNYKXIMYCK-PBHICJAKSA-N

>  <InChi>  (1) 
InChI=1S/C21H23F3N4/c1-14-12-28(13-19-26-20-18(27(19)2)4-3-10-25-20)11-9-17(14)15-5-7-16(8-6-15)21(22,23)24/h3-8,10,14,17H,9,11-13H2,1-2H3/t14-,17+/m1/s1

>  <IUPAC Name>  (1) 
1-methyl-2-[[(3S,4S)-3-methyl-4-[4-(trifluoromethyl)phenyl]piperidin-1-yl]methyl]imidazo[4,5-b]pyridine

$$$$
