
     RDKit          3D

 16 17  0  0  0  0  0  0  0  0999 V2000
    3.6589   -0.3376   -0.0604 O   0  0  0  0  0  0  0  0  0  0  0  0
    2.3956   -0.2341   -0.0387 C   0  0  0  0  0  0  0  0  0  0  0  0
    1.7011    0.9152   -0.0999 N   0  0  0  0  0  0  0  0  0  0  0  0
    0.3809    0.6654   -0.0532 C   0  0  0  0  0  0  0  0  0  0  0  0
    0.2327   -0.7029    0.0418 C   0  0  0  0  0  0  0  0  0  0  0  0
    1.4739   -1.2162    0.0480 N   0  0  0  0  0  0  0  0  0  0  0  0
   -0.9931   -1.2946    0.1093 N   0  0  0  0  0  0  0  0  0  0  0  0
   -2.0882   -0.5126    0.0818 C   0  0  0  0  0  0  0  0  0  0  0  0
   -3.2436   -1.0472    0.1438 O   0  0  0  0  0  0  0  0  0  0  0  0
   -1.9666    0.8404   -0.0117 N   0  0  0  0  0  0  0  0  0  0  0  0
   -0.7649    1.4438   -0.0794 C   0  0  0  0  0  0  0  0  0  0  0  0
   -0.6584    2.7025   -0.1662 O   0  0  0  0  0  0  0  0  0  0  0  0
    2.0625    1.9084   -0.1747 H   0  0  0  0  0  0  0  0  0  0  0  0
    1.6944   -2.2470    0.1121 H   0  0  0  0  0  0  0  0  0  0  0  0
   -1.0382   -2.3159    0.1788 H   0  0  0  0  0  0  0  0  0  0  0  0
   -2.8471    1.4325   -0.0314 H   0  0  0  0  0  0  0  0  0  0  0  0
  1  2  2  0
  2  3  1  0
  3  4  1  0
  4  5  2  0
  5  6  1  0
  5  7  1  0
  7  8  1  0
  8  9  2  0
  8 10  1  0
 10 11  1  0
 11 12  2  0
  6  2  1  0
 11  4  1  0
  3 13  1  0
  6 14  1  0
  7 15  1  0
 10 16  1  0
M  END
>  <Ligand ID>  (1) 
LIG0000764

>  <Ligand>  (1) 
Uric Acid

>  <SMILES>  (1) 
O=c1[nH]c2c([nH]1)[nH]c(=O)[nH]c2=O

>  <CID>  (1) 
1175.0

>  <ChEMBL ID>  (1) 
nan

>  <InChiKey>  (1) 
LEHOTFFKMJEONL-UHFFFAOYSA-N

>  <InChi>  (1) 
InChI=1S/C5H4N4O3/c10-3-1-2(7-4(11)6-1)8-5(12)9-3/h(H4,6,7,8,9,10,11,12)

>  <IUPAC Name>  (1) 
7,9-dihydro-3H-purine-2,6,8-trione

$$$$
