
     RDKit          3D

 45 46  0  0  0  0  0  0  0  0999 V2000
    2.2815    0.6366    1.1626 O   0  0  0  0  0  0  0  0  0  0  0  0
    2.5456   -0.4159    1.7524 C   0  0  0  0  0  0  0  0  0  0  0  0
    1.4799   -1.1386    2.3568 N   0  0  0  0  0  0  0  0  0  0  0  0
    0.0970   -0.6343    2.2731 C   0  0  0  0  0  0  0  0  0  0  0  0
   -0.4154   -0.2935    3.6543 C   0  0  0  0  0  0  0  0  0  0  0  0
   -2.0700    0.2948    3.5949 Cl  0  0  0  0  0  0  0  0  0  0  0  0
    0.6012    0.9576    4.4211 Cl  0  0  0  0  0  0  0  0  0  0  0  0
   -0.3540   -1.7829    4.6661 Cl  0  0  0  0  0  0  0  0  0  0  0  0
   -0.7158   -1.6770    1.7224 N   0  0  0  0  0  0  0  0  0  0  0  0
   -1.8646   -1.4717    0.8663 C   0  0  0  0  0  0  0  0  0  0  0  0
   -2.6219   -2.8623    0.4269 S   0  0  0  0  0  0  0  0  0  0  0  0
   -2.2736   -0.1913    0.4590 N   0  0  0  0  0  0  0  0  0  0  0  0
   -3.3581    0.1892   -0.3422 C   0  0  0  0  0  0  0  0  0  0  0  0
   -4.2958   -0.6369   -0.9020 C   0  0  0  0  0  0  0  0  0  0  0  0
   -5.3488   -0.1724   -1.6946 C   0  0  0  0  0  0  0  0  0  0  0  0
   -5.4624    1.1643   -1.9315 C   0  0  0  0  0  0  0  0  0  0  0  0
   -4.5508    2.0352   -1.3952 C   0  0  0  0  0  0  0  0  0  0  0  0
   -3.5247    1.5561   -0.6198 C   0  0  0  0  0  0  0  0  0  0  0  0
   -6.5745    1.6627   -2.7712 C   0  0  0  0  0  0  0  0  0  0  0  0
    3.8160   -0.9306    1.8589 O   0  0  0  0  0  0  0  0  0  0  0  0
    4.9968   -0.3684    1.3358 C   0  0  0  0  0  0  0  0  0  0  0  0
    5.0059   -0.1971   -0.1289 C   0  0  0  0  0  0  0  0  0  0  0  0
    5.4052   -1.2295   -0.9736 C   0  0  0  0  0  0  0  0  0  0  0  0
    5.4155   -1.0367   -2.3547 C   0  0  0  0  0  0  0  0  0  0  0  0
    5.0419    0.1525   -2.9394 C   0  0  0  0  0  0  0  0  0  0  0  0
    4.6487    1.1684   -2.0995 C   0  0  0  0  0  0  0  0  0  0  0  0
    4.6334    0.9911   -0.7249 C   0  0  0  0  0  0  0  0  0  0  0  0
    1.6543   -2.0262    2.8636 H   0  0  0  0  0  0  0  0  0  0  0  0
    0.0922    0.3031    1.6622 H   0  0  0  0  0  0  0  0  0  0  0  0
   -0.4309   -2.6643    1.9796 H   0  0  0  0  0  0  0  0  0  0  0  0
   -1.6477    0.6091    0.7928 H   0  0  0  0  0  0  0  0  0  0  0  0
   -4.2686   -1.6906   -0.7568 H   0  0  0  0  0  0  0  0  0  0  0  0
   -6.0725   -0.8621   -2.1203 H   0  0  0  0  0  0  0  0  0  0  0  0
   -4.6494    3.0964   -1.5892 H   0  0  0  0  0  0  0  0  0  0  0  0
   -2.8361    2.3021   -0.2249 H   0  0  0  0  0  0  0  0  0  0  0  0
   -6.7333    0.9993   -3.6655 H   0  0  0  0  0  0  0  0  0  0  0  0
   -7.5076    1.6861   -2.1793 H   0  0  0  0  0  0  0  0  0  0  0  0
   -6.3379    2.6600   -3.2025 H   0  0  0  0  0  0  0  0  0  0  0  0
    5.8192   -1.0419    1.6815 H   0  0  0  0  0  0  0  0  0  0  0  0
    5.2306    0.6147    1.8454 H   0  0  0  0  0  0  0  0  0  0  0  0
    5.7101   -2.1870   -0.5731 H   0  0  0  0  0  0  0  0  0  0  0  0
    5.7372   -1.8753   -2.9893 H   0  0  0  0  0  0  0  0  0  0  0  0
    5.0410    0.3278   -4.0042 H   0  0  0  0  0  0  0  0  0  0  0  0
    4.3490    2.1186   -2.5557 H   0  0  0  0  0  0  0  0  0  0  0  0
    4.3121    1.8609   -0.1508 H   0  0  0  0  0  0  0  0  0  0  0  0
  1  2  2  0
  2  3  1  0
  3  4  1  0
  4  5  1  0
  5  6  1  0
  5  7  1  0
  5  8  1  0
  4  9  1  0
  9 10  1  0
 10 11  2  0
 10 12  1  0
 12 13  1  0
 13 14  2  0
 14 15  1  0
 15 16  2  0
 16 17  1  0
 17 18  2  0
 16 19  1  0
  2 20  1  0
 20 21  1  0
 21 22  1  0
 22 23  2  0
 23 24  1  0
 24 25  2  0
 25 26  1  0
 26 27  2  0
 18 13  1  0
 27 22  1  0
  3 28  1  0
  4 29  1  0
  9 30  1  0
 12 31  1  0
 14 32  1  0
 15 33  1  0
 17 34  1  0
 18 35  1  0
 19 36  1  0
 19 37  1  0
 19 38  1  0
 21 39  1  0
 21 40  1  0
 23 41  1  0
 24 42  1  0
 25 43  1  0
 26 44  1  0
 27 45  1  0
M  END
>  <Ligand ID>  (1) 
LIG0003830

>  <Ligand>  (1) 
MLS-0425694.0001

>  <SMILES>  (1) 
O=C(NC(C(Cl)(Cl)Cl)NC(=S)Nc1ccc(cc1)C)OCc1ccccc1

>  <CID>  (1) 
3091257.0

>  <ChEMBL ID>  (1) 
nan

>  <InChiKey>  (1) 
FCWNHTBGFOOASZ-UHFFFAOYSA-N

>  <InChi>  (1) 
InChI=1S/C18H18Cl3N3O2S/c1-12-7-9-14(10-8-12)22-16(27)23-15(18(19,20)21)24-17(25)26-11-13-5-3-2-4-6-13/h2-10,15H,11H2,1H3,(H,24,25)(H2,22,23,27)

>  <IUPAC Name>  (1) 
benzyl N-[2,2,2-trichloro-1-[(4-methylphenyl)carbamothioylamino]ethyl]carbamate

$$$$
