
     RDKit          3D

 45 46  0  0  0  0  0  0  0  0999 V2000
   -5.1977    1.1897    1.1069 C   0  0  0  0  0  0  0  0  0  0  0  0
   -4.2301    0.6190    0.0641 C   0  0  0  0  0  0  0  0  0  0  0  0
   -3.2275   -0.3277    0.6739 C   0  0  0  0  0  0  0  0  0  0  0  0
   -2.3411   -0.8219   -0.3259 N   0  0  0  0  0  0  0  0  0  0  0  0
   -1.0939   -0.3480   -0.7633 C   0  0  0  0  0  0  0  0  0  0  0  0
   -0.5627   -1.0489   -1.6930 O   0  0  0  0  0  0  0  0  0  0  0  0
   -0.3202    0.7914   -0.3311 C   0  0  0  0  0  0  0  0  0  0  0  0
   -0.8230    1.8514    0.3900 C   0  0  0  0  0  0  0  0  0  0  0  0
   -0.0909    2.9775    0.7480 C   0  0  0  0  0  0  0  0  0  0  0  0
    1.2179    3.0808    0.3798 C   0  0  0  0  0  0  0  0  0  0  0  0
    1.7603    2.0470   -0.3401 C   0  0  0  0  0  0  0  0  0  0  0  0
    1.0275    0.9070   -0.7031 C   0  0  0  0  0  0  0  0  0  0  0  0
    1.7551   -0.0673   -1.4156 N   0  0  0  0  0  0  0  0  0  0  0  0
    3.1839    0.1060   -1.7699 C   0  0  0  0  0  0  0  0  0  0  0  0
    3.9951   -0.0396   -0.5279 C   0  0  0  0  0  0  0  0  0  0  0  0
    4.9200    0.6648   -0.0263 N   0  0  0  0  0  0  0  0  0  0  0  0
    5.4472    0.1581    1.2141 C   0  0  0  0  0  0  0  0  0  0  0  0
    4.9669   -1.2894    1.1893 C   0  0  0  0  0  0  0  0  0  0  0  0
    3.7898   -1.1834    0.3366 N   0  0  0  0  0  0  0  0  0  0  0  0
   -2.8195   -2.0451   -1.0220 C   0  0  0  0  0  0  0  0  0  0  0  0
   -2.3837   -3.2946   -0.3412 C   0  0  0  0  0  0  0  0  0  0  0  0
   -5.8191    0.3319    1.4317 H   0  0  0  0  0  0  0  0  0  0  0  0
   -4.6186    1.6029    1.9595 H   0  0  0  0  0  0  0  0  0  0  0  0
   -5.7574    2.0017    0.6059 H   0  0  0  0  0  0  0  0  0  0  0  0
   -4.8485   -0.0262   -0.6387 H   0  0  0  0  0  0  0  0  0  0  0  0
   -3.7580    1.4161   -0.5339 H   0  0  0  0  0  0  0  0  0  0  0  0
   -3.8371   -1.2041    1.0844 H   0  0  0  0  0  0  0  0  0  0  0  0
   -2.6925    0.0420    1.5595 H   0  0  0  0  0  0  0  0  0  0  0  0
   -1.8456    1.8852    0.7223 H   0  0  0  0  0  0  0  0  0  0  0  0
   -0.5234    3.7945    1.3191 H   0  0  0  0  0  0  0  0  0  0  0  0
    1.7839    3.9558    0.6579 H   0  0  0  0  0  0  0  0  0  0  0  0
    2.7937    2.1629   -0.6318 H   0  0  0  0  0  0  0  0  0  0  0  0
    1.3961   -0.9917   -1.7466 H   0  0  0  0  0  0  0  0  0  0  0  0
    3.3124    1.1020   -2.2583 H   0  0  0  0  0  0  0  0  0  0  0  0
    3.5002   -0.6243   -2.5409 H   0  0  0  0  0  0  0  0  0  0  0  0
    6.5625    0.2266    1.1616 H   0  0  0  0  0  0  0  0  0  0  0  0
    5.0220    0.6789    2.1001 H   0  0  0  0  0  0  0  0  0  0  0  0
    4.7403   -1.6922    2.1831 H   0  0  0  0  0  0  0  0  0  0  0  0
    5.7849   -1.8630    0.6646 H   0  0  0  0  0  0  0  0  0  0  0  0
    2.9767   -1.8145    0.3617 H   0  0  0  0  0  0  0  0  0  0  0  0
   -3.9152   -1.9661   -1.0517 H   0  0  0  0  0  0  0  0  0  0  0  0
   -2.4521   -2.0459   -2.0863 H   0  0  0  0  0  0  0  0  0  0  0  0
   -1.6019   -3.0984    0.4460 H   0  0  0  0  0  0  0  0  0  0  0  0
   -1.9079   -3.9848   -1.0672 H   0  0  0  0  0  0  0  0  0  0  0  0
   -3.2688   -3.8162    0.1089 H   0  0  0  0  0  0  0  0  0  0  0  0
  1  2  1  0
  2  3  1  0
  3  4  1  0
  4  5  1  0
  5  6  2  0
  5  7  1  0
  7  8  2  0
  8  9  1  0
  9 10  2  0
 10 11  1  0
 11 12  2  0
 12 13  1  0
 13 14  1  0
 14 15  1  0
 15 16  2  0
 16 17  1  0
 17 18  1  0
 18 19  1  0
  4 20  1  0
 20 21  1  0
 12  7  1  0
 19 15  1  0
  1 22  1  0
  1 23  1  0
  1 24  1  0
  2 25  1  0
  2 26  1  0
  3 27  1  0
  3 28  1  0
  8 29  1  0
  9 30  1  0
 10 31  1  0
 11 32  1  0
 13 33  1  0
 14 34  1  0
 14 35  1  0
 17 36  1  0
 17 37  1  0
 18 38  1  0
 18 39  1  0
 19 40  1  0
 20 41  1  0
 20 42  1  0
 21 43  1  0
 21 44  1  0
 21 45  1  0
M  END
>  <Ligand ID>  (1) 
LIG0004338

>  <Ligand>  (1) 
CHEMBL98769

>  <SMILES>  (1) 
CCCN(C(=O)c1ccccc1NCC1=NCCN1)CC

>  <CID>  (1) 
22493401.0

>  <ChEMBL ID>  (1) 
nan

>  <InChiKey>  (1) 
GBDMPVCOGLRHJI-UHFFFAOYSA-N

>  <InChi>  (1) 
InChI=1S/C16H24N4O/c1-3-11-20(4-2)16(21)13-7-5-6-8-14(13)19-12-15-17-9-10-18-15/h5-8,19H,3-4,9-12H2,1-2H3,(H,17,18)

>  <IUPAC Name>  (1) 
2-(4,5-dihydro-1H-imidazol-2-ylmethylamino)-N-ethyl-N-propylbenzamide

$$$$
