
     RDKit          3D

 22 23  0  0  0  0  0  0  0  0999 V2000
    3.3646    1.6387    0.8519 N   0  0  0  0  0  0  0  0  0  0  0  0
    2.4906    0.7210    0.2030 C   0  0  0  0  0  0  0  0  0  0  0  0
    1.7067   -0.0655    0.8900 N   0  0  0  0  0  0  0  0  0  0  0  0
    0.9276   -0.8925    0.0033 C   0  0  2  0  0  0  0  0  0  0  0  0
    1.4941   -0.6598   -1.3664 C   0  0  0  0  0  0  0  0  0  0  0  0
    2.3066    0.4931   -1.1377 O   0  0  0  0  0  0  0  0  0  0  0  0
   -0.5218   -0.5817    0.0836 C   0  0  0  0  0  0  0  0  0  0  0  0
   -1.4818   -1.5968    0.1577 C   0  0  0  0  0  0  0  0  0  0  0  0
   -2.8278   -1.2296    0.2310 C   0  0  0  0  0  0  0  0  0  0  0  0
   -3.1905    0.1091    0.2296 C   0  0  0  0  0  0  0  0  0  0  0  0
   -2.2322    1.0941    0.1562 C   0  0  0  0  0  0  0  0  0  0  0  0
   -0.8891    0.7487    0.0827 C   0  0  0  0  0  0  0  0  0  0  0  0
   -2.7384    2.7717    0.1576 Cl  0  0  0  0  0  0  0  0  0  0  0  0
   -4.9049    0.4567    0.3250 Cl  0  0  0  0  0  0  0  0  0  0  0  0
    3.2966    2.6724    0.7326 H   0  0  0  0  0  0  0  0  0  0  0  0
    4.1230    1.3023    1.4854 H   0  0  0  0  0  0  0  0  0  0  0  0
    1.0853   -1.9466    0.2784 H   0  0  0  0  0  0  0  0  0  0  0  0
    2.1398   -1.4954   -1.7049 H   0  0  0  0  0  0  0  0  0  0  0  0
    0.7441   -0.4430   -2.1298 H   0  0  0  0  0  0  0  0  0  0  0  0
   -1.1860   -2.6229    0.1576 H   0  0  0  0  0  0  0  0  0  0  0  0
   -3.5292   -2.0357    0.2861 H   0  0  0  0  0  0  0  0  0  0  0  0
   -0.1772    1.5617    0.0268 H   0  0  0  0  0  0  0  0  0  0  0  0
  1  2  1  0
  2  3  2  0
  3  4  1  0
  4  5  1  0
  5  6  1  0
  4  7  1  0
  7  8  2  0
  8  9  1  0
  9 10  2  0
 10 11  1  0
 11 12  2  0
 11 13  1  0
 10 14  1  0
  6  2  1  0
 12  7  1  0
  1 15  1  0
  1 16  1  0
  4 17  1  1
  5 18  1  0
  5 19  1  0
  8 20  1  0
  9 21  1  0
 12 22  1  0
M  END
>  <Ligand ID>  (1) 
LIG0005695

>  <Ligand>  (1) 
SCHEMBL3613795

>  <SMILES>  (1) 
NC1=N[C@H](CO1)c1ccc(c(c1)Cl)Cl

>  <CID>  (1) 
24966113.0

>  <ChEMBL ID>  (1) 
nan

>  <InChiKey>  (1) 
HGGPGNSCBBAGJN-MRVPVSSYSA-N

>  <InChi>  (1) 
InChI=1S/C9H8Cl2N2O/c10-6-2-1-5(3-7(6)11)8-4-14-9(12)13-8/h1-3,8H,4H2,(H2,12,13)/t8-/m1/s1

>  <IUPAC Name>  (1) 
(4S)-4-(3,4-dichlorophenyl)-4,5-dihydro-1,3-oxazol-2-amine

$$$$
