
     RDKit          3D

 99102  0  0  0  0  0  0  0  0999 V2000
   -4.0737    5.4761    1.6728 N   0  0  0  0  0  0  0  0  0  0  0  0
   -3.5436    4.7098    2.7562 C   0  0  0  0  0  0  0  0  0  0  0  0
   -2.3235    4.3011    2.7777 N   0  0  0  0  0  0  0  0  0  0  0  0
   -1.3766    4.5657    1.7366 C   0  0  0  0  0  0  0  0  0  0  0  0
   -1.3257    3.3919    0.7956 C   0  0  0  0  0  0  0  0  0  0  0  0
   -0.9069    2.1649    1.5416 C   0  0  0  0  0  0  0  0  0  0  0  0
   -0.8446    0.9843    0.5584 C   0  0  1  0  0  0  0  0  0  0  0  0
   -2.1804    0.7716   -0.0533 C   0  0  0  0  0  0  0  0  0  0  0  0
   -2.4276    0.9944   -1.2719 O   0  0  0  0  0  0  0  0  0  0  0  0
   -3.2461    0.2941    0.7380 N   0  0  0  0  0  0  0  0  0  0  0  0
   -4.5855    0.0783    0.1118 C   0  0  2  0  0  0  0  0  0  0  0  0
   -5.5685    0.7037    0.9802 C   0  0  0  0  0  0  0  0  0  0  0  0
   -6.7416    0.8605    0.6065 O   0  0  0  0  0  0  0  0  0  0  0  0
   -5.2351    1.1623    2.2924 N   0  0  0  0  0  0  0  0  0  0  0  0
   -4.8087   -1.3835   -0.0599 C   0  0  0  0  0  0  0  0  0  0  0  0
   -6.1126   -1.6944   -0.6367 C   0  0  0  0  0  0  0  0  0  0  0  0
   -6.3318   -1.8040   -2.0198 C   0  0  0  0  0  0  0  0  0  0  0  0
   -7.6342   -2.0536   -2.2433 N   0  0  0  0  0  0  0  0  0  0  0  0
   -8.2876   -2.1156   -1.0726 C   0  0  0  0  0  0  0  0  0  0  0  0
   -7.3542   -1.8946   -0.0695 C   0  0  0  0  0  0  0  0  0  0  0  0
   -7.7933   -1.9318    1.2314 C   0  0  0  0  0  0  0  0  0  0  0  0
   -9.0820   -2.1685    1.6189 C   0  0  0  0  0  0  0  0  0  0  0  0
  -10.0112   -2.3870    0.6079 C   0  0  0  0  0  0  0  0  0  0  0  0
   -9.6233   -2.3624   -0.7362 C   0  0  0  0  0  0  0  0  0  0  0  0
    0.1773    1.3411   -0.4207 N   0  0  0  0  0  0  0  0  0  0  0  0
    1.3358    0.5090   -0.4598 C   0  0  0  0  0  0  0  0  0  0  0  0
    1.4118   -0.4818    0.3497 O   0  0  0  0  0  0  0  0  0  0  0  0
    2.4734    0.6935   -1.3673 C   0  0  1  0  0  0  0  0  0  0  0  0
    3.4220   -0.3501   -1.0584 N   0  0  0  0  0  0  0  0  0  0  0  0
    4.8039   -0.1460   -0.8164 C   0  0  0  0  0  0  0  0  0  0  0  0
    5.3084    0.9862   -0.8582 O   0  0  0  0  0  0  0  0  0  0  0  0
    5.6109   -1.3546   -0.5149 C   0  0  2  0  0  0  0  0  0  0  0  0
    5.1982   -1.9273    0.8302 C   0  0  0  0  0  0  0  0  0  0  0  0
    5.4210   -0.9700    1.9282 C   0  0  0  0  0  0  0  0  0  0  0  0
    4.5353   -0.0485    2.3810 C   0  0  0  0  0  0  0  0  0  0  0  0
    4.8538    0.8141    3.4297 C   0  0  0  0  0  0  0  0  0  0  0  0
    6.0977    0.7494    4.0418 C   0  0  0  0  0  0  0  0  0  0  0  0
    6.9990   -0.1742    3.5957 C   0  0  0  0  0  0  0  0  0  0  0  0
    6.6660   -1.0179    2.5582 C   0  0  0  0  0  0  0  0  0  0  0  0
    6.5259    1.8300    5.3709 Cl  0  0  0  0  0  0  0  0  0  0  0  0
    7.0336   -1.0920   -0.4216 N   0  0  0  0  0  0  0  0  0  0  0  0
    7.8844   -1.9028   -1.2271 C   0  0  0  0  0  0  0  0  0  0  0  0
    7.4520   -2.8068   -1.9897 O   0  0  0  0  0  0  0  0  0  0  0  0
    9.3809   -1.7301   -1.2191 C   0  0  0  0  0  0  0  0  0  0  0  0
    9.9957   -2.7671   -2.1465 C   0  0  0  0  0  0  0  0  0  0  0  0
   11.3602   -2.6218   -2.1484 F   0  0  0  0  0  0  0  0  0  0  0  0
    9.5901   -4.0090   -1.6758 F   0  0  0  0  0  0  0  0  0  0  0  0
    9.4968   -2.5545   -3.4067 F   0  0  0  0  0  0  0  0  0  0  0  0
    2.1281    0.7386   -2.8268 C   0  0  0  0  0  0  0  0  0  0  0  0
    1.4867   -0.4548   -3.3716 C   0  0  0  0  0  0  0  0  0  0  0  0
    2.1939   -1.5351   -3.9086 C   0  0  0  0  0  0  0  0  0  0  0  0
    1.5272   -2.6483   -4.4141 C   0  0  0  0  0  0  0  0  0  0  0  0
    0.1522   -2.7295   -4.4055 C   0  0  0  0  0  0  0  0  0  0  0  0
   -0.5562   -1.6639   -3.8759 C   0  0  0  0  0  0  0  0  0  0  0  0
    0.1158   -0.5672   -3.3784 C   0  0  0  0  0  0  0  0  0  0  0  0
   -4.4072    4.4168    3.8279 N   0  0  0  0  0  0  0  0  0  0  0  0
   -4.9464    5.1410    1.1667 H   0  0  0  0  0  0  0  0  0  0  0  0
   -3.6407    6.3709    1.3404 H   0  0  0  0  0  0  0  0  0  0  0  0
   -0.3579    4.6071    2.2184 H   0  0  0  0  0  0  0  0  0  0  0  0
   -1.5895    5.5063    1.1850 H   0  0  0  0  0  0  0  0  0  0  0  0
   -2.3519    3.2049    0.4045 H   0  0  0  0  0  0  0  0  0  0  0  0
   -0.6306    3.6901   -0.0221 H   0  0  0  0  0  0  0  0  0  0  0  0
   -1.6772    1.9631    2.3099 H   0  0  0  0  0  0  0  0  0  0  0  0
    0.1001    2.3507    1.9350 H   0  0  0  0  0  0  0  0  0  0  0  0
   -0.5186    0.1146    1.1602 H   0  0  0  0  0  0  0  0  0  0  0  0
   -3.1690    0.0712    1.7649 H   0  0  0  0  0  0  0  0  0  0  0  0
   -4.5544    0.5315   -0.9177 H   0  0  0  0  0  0  0  0  0  0  0  0
   -5.0018    0.4995    3.0795 H   0  0  0  0  0  0  0  0  0  0  0  0
   -5.2406    2.2014    2.4148 H   0  0  0  0  0  0  0  0  0  0  0  0
   -4.0210   -1.8292   -0.7249 H   0  0  0  0  0  0  0  0  0  0  0  0
   -4.7586   -1.8565    0.9520 H   0  0  0  0  0  0  0  0  0  0  0  0
   -5.5534   -1.6998   -2.7881 H   0  0  0  0  0  0  0  0  0  0  0  0
   -8.0359   -2.1738   -3.2002 H   0  0  0  0  0  0  0  0  0  0  0  0
   -7.0420   -1.7561    1.9966 H   0  0  0  0  0  0  0  0  0  0  0  0
   -9.3598   -2.1825    2.6746 H   0  0  0  0  0  0  0  0  0  0  0  0
  -11.0614   -2.5806    0.8603 H   0  0  0  0  0  0  0  0  0  0  0  0
  -10.3561   -2.5349   -1.5308 H   0  0  0  0  0  0  0  0  0  0  0  0
    0.1221    2.1269   -1.0672 H   0  0  0  0  0  0  0  0  0  0  0  0
    2.9604    1.6570   -1.1537 H   0  0  0  0  0  0  0  0  0  0  0  0
    3.0154   -1.3336   -1.0173 H   0  0  0  0  0  0  0  0  0  0  0  0
    5.4489   -2.1209   -1.2765 H   0  0  0  0  0  0  0  0  0  0  0  0
    5.8281   -2.8191    1.0100 H   0  0  0  0  0  0  0  0  0  0  0  0
    4.1475   -2.2866    0.7770 H   0  0  0  0  0  0  0  0  0  0  0  0
    3.5747    0.0206    1.9286 H   0  0  0  0  0  0  0  0  0  0  0  0
    4.1626    1.5533    3.8024 H   0  0  0  0  0  0  0  0  0  0  0  0
    7.9932   -0.2823    4.0251 H   0  0  0  0  0  0  0  0  0  0  0  0
    7.4137   -1.7516    2.2214 H   0  0  0  0  0  0  0  0  0  0  0  0
    7.4443   -0.3709    0.1803 H   0  0  0  0  0  0  0  0  0  0  0  0
    9.6610   -0.7497   -1.6572 H   0  0  0  0  0  0  0  0  0  0  0  0
    9.7814   -1.7698   -0.1914 H   0  0  0  0  0  0  0  0  0  0  0  0
    1.4268    1.5893   -2.9633 H   0  0  0  0  0  0  0  0  0  0  0  0
    3.0513    1.0640   -3.3527 H   0  0  0  0  0  0  0  0  0  0  0  0
    3.2891   -1.4732   -3.9168 H   0  0  0  0  0  0  0  0  0  0  0  0
    2.1084   -3.4797   -4.8288 H   0  0  0  0  0  0  0  0  0  0  0  0
   -0.4085   -3.5648   -4.7822 H   0  0  0  0  0  0  0  0  0  0  0  0
   -1.6276   -1.6829   -3.8487 H   0  0  0  0  0  0  0  0  0  0  0  0
   -0.4516    0.2343   -2.9816 H   0  0  0  0  0  0  0  0  0  0  0  0
   -5.4248    4.1986    3.7391 H   0  0  0  0  0  0  0  0  0  0  0  0
   -4.0059    4.4139    4.8100 H   0  0  0  0  0  0  0  0  0  0  0  0
  1  2  1  0
  2  3  2  3
  3  4  1  0
  4  5  1  0
  5  6  1  0
  6  7  1  0
  7  8  1  0
  8  9  2  0
  8 10  1  0
 10 11  1  0
 11 12  1  0
 12 13  2  0
 12 14  1  0
 11 15  1  0
 15 16  1  0
 16 17  2  0
 17 18  1  0
 18 19  1  0
 19 20  2  0
 20 21  1  0
 21 22  2  0
 22 23  1  0
 23 24  2  0
  7 25  1  0
 25 26  1  0
 26 27  2  0
 26 28  1  0
 28 29  1  0
 29 30  1  0
 30 31  2  0
 30 32  1  0
 32 33  1  0
 33 34  1  0
 34 35  2  0
 35 36  1  0
 36 37  2  0
 37 38  1  0
 38 39  2  0
 37 40  1  0
 32 41  1  0
 41 42  1  0
 42 43  2  0
 42 44  1  0
 44 45  1  0
 45 46  1  0
 45 47  1  0
 45 48  1  0
 28 49  1  0
 49 50  1  0
 50 51  2  0
 51 52  1  0
 52 53  2  0
 53 54  1  0
 54 55  2  0
  2 56  1  0
 20 16  1  0
 39 34  1  0
 55 50  1  0
 24 19  1  0
  1 57  1  0
  1 58  1  0
  4 59  1  0
  4 60  1  0
  5 61  1  0
  5 62  1  0
  6 63  1  0
  6 64  1  0
  7 65  1  1
 10 66  1  0
 11 67  1  6
 14 68  1  0
 14 69  1  0
 15 70  1  0
 15 71  1  0
 17 72  1  0
 18 73  1  0
 21 74  1  0
 22 75  1  0
 23 76  1  0
 24 77  1  0
 25 78  1  0
 28 79  1  1
 29 80  1  0
 32 81  1  6
 33 82  1  0
 33 83  1  0
 35 84  1  0
 36 85  1  0
 38 86  1  0
 39 87  1  0
 41 88  1  0
 44 89  1  0
 44 90  1  0
 49 91  1  0
 49 92  1  0
 51 93  1  0
 52 94  1  0
 53 95  1  0
 54 96  1  0
 55 97  1  0
 56 98  1  0
 56 99  1  0
M  END
>  <Ligand ID>  (1) 
LIG0002626

>  <Ligand>  (1) 
CHEMBL263047

>  <SMILES>  (1) 
NC(=NCCC[C@@H](C(=O)N[C@H](C(=O)N)Cc1c[nH]c2c1cccc2)NC(=O)[C@@H](NC(=O)[C@H](Cc1ccc(cc1)Cl)NC(=O)CC(F)(F)F)Cc1ccccc1)N

>  <CID>  (1) 
44394584.0

>  <ChEMBL ID>  (1) 
nan

>  <InChiKey>  (1) 
UVEAKBXMJDTXDL-ORYMTKCHSA-N

>  <InChi>  (1) 
InChI=1S/C38H43ClF3N9O5/c39-25-14-12-23(13-15-25)18-30(48-32(52)20-38(40,41)42)35(55)51-31(17-22-7-2-1-3-8-22)36(56)49-28(11-6-16-46-37(44)45)34(54)50-29(33(43)53)19-24-21-47-27-10-5-4-9-26(24)27/h1-5,7-10,12-15,21,28-31,47H,6,11,16-20H2,(H2,43,53)(H,48,52)(H,49,56)(H,50,54)(H,51,55)(H4,44,45,46)/t28-,29-,30-,31-/m0/s1

>  <IUPAC Name>  (1) 
(2S)-N-[(2S)-1-amino-3-(1H-indol-3-yl)-1-oxopropan-2-yl]-2-[[(2S)-2-[[(2S)-3-(4-chlorophenyl)-2-(3,3,3-trifluoropropanoylamino)propanoyl]amino]-3-phenylpropanoyl]amino]-5-(diaminomethylideneamino)pentanamide

$$$$
