
     RDKit          3D

 70 77  0  0  0  0  0  0  0  0999 V2000
    3.3469   -2.6790    0.8000 C   0  0  0  0  0  0  0  0  0  0  0  0
    2.7812   -2.3696   -0.4047 O   0  0  0  0  0  0  0  0  0  0  0  0
    1.5950   -1.6683   -0.3736 C   0  0  2  0  0  0  0  0  0  0  0  0
    1.0632   -1.5410   -1.7723 C   0  0  0  0  0  0  0  0  0  0  0  0
   -0.0694   -0.5494   -1.8680 C   0  0  0  0  0  0  0  0  0  0  0  0
   -0.4483   -0.1621   -0.4656 C   0  0  2  0  0  0  0  0  0  0  0  0
    0.6645    0.6136    0.1174 C   0  0  0  0  0  0  0  0  0  0  0  0
    1.8940   -0.2777    0.2160 C   0  0  2  0  0  0  0  0  0  0  0  0
    3.0969    0.2675   -0.4410 C   0  0  2  0  0  0  0  0  0  0  0  0
    3.5364    1.6100    0.0615 C   0  0  0  0  0  0  0  0  0  0  0  0
    3.1711    2.7917   -0.5286 C   0  0  0  0  0  0  0  0  0  0  0  0
    3.6547    3.9596    0.0753 C   0  0  0  0  0  0  0  0  0  0  0  0
    4.4533    3.9190    1.1982 C   0  0  0  0  0  0  0  0  0  0  0  0
    4.8092    2.7189    1.7750 C   0  0  0  0  0  0  0  0  0  0  0  0
    4.3492    1.5734    1.2043 C   0  0  0  0  0  0  0  0  0  0  0  0
    3.0354    0.3209   -1.8456 O   0  0  0  0  0  0  0  0  0  0  0  0
   -0.6722   -1.4003    0.3779 C   0  0  2  0  0  0  0  0  0  0  0  0
    0.5627   -2.2730    0.5070 C   0  0  1  0  0  0  0  0  0  0  0  0
    0.1285   -3.5812    0.1567 O   0  0  0  0  0  0  0  0  0  0  0  0
   -1.0635   -3.5324   -0.5612 C   0  0  0  0  0  0  0  0  0  0  0  0
   -1.5193   -2.2660   -0.4550 C   0  0  0  0  0  0  0  0  0  0  0  0
   -2.6522   -1.7393   -1.0003 C   0  0  0  0  0  0  0  0  0  0  0  0
   -2.9493   -0.3212   -0.7961 C   0  0  0  0  0  0  0  0  0  0  0  0
   -1.7824    0.5532   -0.4173 C   0  0  1  0  0  0  0  0  0  0  0  0
   -1.9848    1.0861    0.8582 N   0  0  0  0  0  0  0  0  0  0  0  0
   -1.8577    0.1944    1.9660 C   0  0  0  0  0  0  0  0  0  0  0  0
   -1.3014   -1.1394    1.6848 C   0  0  0  0  0  0  0  0  0  0  0  0
   -1.9221    2.4603    1.1062 C   0  0  0  0  0  0  0  0  0  0  0  0
   -3.0002    3.3574    0.6029 C   0  0  0  0  0  0  0  0  0  0  0  0
   -4.4304    3.0612    1.1199 C   0  0  0  0  0  0  0  0  0  0  0  0
   -4.0347    3.0670   -0.3743 C   0  0  0  0  0  0  0  0  0  0  0  0
   -3.4255   -2.6136   -1.7489 C   0  0  0  0  0  0  0  0  0  0  0  0
   -3.0096   -3.9461   -1.8968 C   0  0  0  0  0  0  0  0  0  0  0  0
   -1.8326   -4.4095   -1.3067 C   0  0  0  0  0  0  0  0  0  0  0  0
   -1.4001   -5.7198   -1.4384 O   0  0  0  0  0  0  0  0  0  0  0  0
    4.3085   -3.2319    0.5709 H   0  0  0  0  0  0  0  0  0  0  0  0
    2.7311   -3.4889    1.2956 H   0  0  0  0  0  0  0  0  0  0  0  0
    3.5863   -1.8820    1.4926 H   0  0  0  0  0  0  0  0  0  0  0  0
    1.8306   -1.4446   -2.5566 H   0  0  0  0  0  0  0  0  0  0  0  0
    0.5872   -2.5454   -2.0041 H   0  0  0  0  0  0  0  0  0  0  0  0
   -0.8959   -0.8945   -2.4998 H   0  0  0  0  0  0  0  0  0  0  0  0
    0.3372    0.3612   -2.3545 H   0  0  0  0  0  0  0  0  0  0  0  0
    0.8279    1.5027   -0.5205 H   0  0  0  0  0  0  0  0  0  0  0  0
    0.4603    0.9977    1.1266 H   0  0  0  0  0  0  0  0  0  0  0  0
    2.1395   -0.4702    1.2788 H   0  0  0  0  0  0  0  0  0  0  0  0
    3.9535   -0.4500   -0.2645 H   0  0  0  0  0  0  0  0  0  0  0  0
    2.5516    2.8136   -1.4120 H   0  0  0  0  0  0  0  0  0  0  0  0
    3.4166    4.9273   -0.3224 H   0  0  0  0  0  0  0  0  0  0  0  0
    4.8438    4.8172    1.6823 H   0  0  0  0  0  0  0  0  0  0  0  0
    5.4419    2.6520    2.6626 H   0  0  0  0  0  0  0  0  0  0  0  0
    4.6283    0.6325    1.6602 H   0  0  0  0  0  0  0  0  0  0  0  0
    3.9200    0.6815   -2.1139 H   0  0  0  0  0  0  0  0  0  0  0  0
    0.8988   -2.3334    1.5671 H   0  0  0  0  0  0  0  0  0  0  0  0
   -3.4515    0.0690   -1.7342 H   0  0  0  0  0  0  0  0  0  0  0  0
   -3.7540   -0.2400   -0.0257 H   0  0  0  0  0  0  0  0  0  0  0  0
   -1.7205    1.3690   -1.1633 H   0  0  0  0  0  0  0  0  0  0  0  0
   -1.2678    0.7185    2.7445 H   0  0  0  0  0  0  0  0  0  0  0  0
   -2.8756    0.1034    2.4229 H   0  0  0  0  0  0  0  0  0  0  0  0
   -0.5289   -1.3982    2.4695 H   0  0  0  0  0  0  0  0  0  0  0  0
   -2.0812   -1.9336    1.8600 H   0  0  0  0  0  0  0  0  0  0  0  0
   -1.8706    2.6618    2.2299 H   0  0  0  0  0  0  0  0  0  0  0  0
   -0.9468    2.8932    0.7449 H   0  0  0  0  0  0  0  0  0  0  0  0
   -2.7545    4.4699    0.7017 H   0  0  0  0  0  0  0  0  0  0  0  0
   -4.5517    2.0645    1.5914 H   0  0  0  0  0  0  0  0  0  0  0  0
   -5.0253    3.9165    1.4882 H   0  0  0  0  0  0  0  0  0  0  0  0
   -4.2671    2.1314   -0.8693 H   0  0  0  0  0  0  0  0  0  0  0  0
   -4.4944    3.9341   -0.9308 H   0  0  0  0  0  0  0  0  0  0  0  0
   -4.3328   -2.2426   -2.1983 H   0  0  0  0  0  0  0  0  0  0  0  0
   -3.6153   -4.6333   -2.4807 H   0  0  0  0  0  0  0  0  0  0  0  0
   -0.8158   -5.8933   -2.2717 H   0  0  0  0  0  0  0  0  0  0  0  0
  1  2  1  0
  3  2  1  6
  3  4  1  0
  4  5  1  0
  6  5  1  6
  6  7  1  0
  7  8  1  0
  8  9  1  0
  9 10  1  0
 10 11  2  0
 11 12  1  0
 12 13  2  0
 13 14  1  0
 14 15  2  0
  9 16  1  0
  6 17  1  0
 17 18  1  0
 18 19  1  0
 19 20  1  0
 20 21  2  0
 21 22  1  0
 22 23  1  0
 23 24  1  0
 24 25  1  0
 25 26  1  0
 26 27  1  0
 25 28  1  0
 28 29  1  0
 29 30  1  0
 30 31  1  0
 22 32  2  0
 32 33  1  0
 33 34  2  0
 34 35  1  0
  8  3  1  0
 15 10  1  0
 17 27  1  1
 31 29  1  0
 18  3  1  0
 34 20  1  0
 24  6  1  0
 21 17  1  0
  1 36  1  0
  1 37  1  0
  1 38  1  0
  4 39  1  0
  4 40  1  0
  5 41  1  0
  5 42  1  0
  7 43  1  0
  7 44  1  0
  8 45  1  1
  9 46  1  6
 11 47  1  0
 12 48  1  0
 13 49  1  0
 14 50  1  0
 15 51  1  0
 16 52  1  0
 18 53  1  1
 23 54  1  0
 23 55  1  0
 24 56  1  6
 26 57  1  0
 26 58  1  0
 27 59  1  0
 27 60  1  0
 28 61  1  0
 28 62  1  0
 29 63  1  0
 30 64  1  0
 30 65  1  0
 31 66  1  0
 31 67  1  0
 32 68  1  0
 33 69  1  0
 35 70  1  0
M  END
>  <Ligand ID>  (1) 
LIG0004692

>  <Ligand>  (1) 
CHEMBL3262092

>  <SMILES>  (1) 
CO[C@]12CC[C@]3(C[C@@H]1[C@H](c1ccccc1)O)[C@@]14[C@H]2Oc2c4c(C[C@H]3N(CC1)CC1CC1)ccc2O

>  <CID>  (1) 
90306849.0

>  <ChEMBL ID>  (1) 
nan

>  <InChiKey>  (1) 
QYHVPWDIPSDDCT-RNOORVPFSA-N

>  <InChi>  (1) 
InChI=1S/C30H35NO4/c1-34-30-12-11-28(16-21(30)25(33)19-5-3-2-4-6-19)23-15-20-9-10-22(32)26-24(20)29(28,27(30)35-26)13-14-31(23)17-18-7-8-18/h2-6,9-10,18,21,23,25,27,32-33H,7-8,11-17H2,1H3/t21-,23-,25+,27-,28-,29+,30-/m1/s1

>  <IUPAC Name>  (1) 
(1S,2S,6R,14R,15R,16R)-5-(cyclopropylmethyl)-16-[(R)-hydroxy(phenyl)methyl]-15-methoxy-13-oxa-5-azahexacyclo[13.2.2.12,8.01,6.02,14.012,20]icosa-8(20),9,11-trien-11-ol

$$$$
