
     RDKit          3D

 30 30  0  0  0  0  0  0  0  0999 V2000
    3.2298    0.6687    1.3174 C   0  0  0  0  0  0  0  0  0  0  0  0
    1.8232    0.6220    0.7123 C   0  0  0  0  0  0  0  0  0  0  0  0
    1.9787    0.7521   -0.7743 C   0  0  0  0  0  0  0  0  0  0  0  0
    0.7249    0.7629   -1.5698 C   0  0  0  0  0  0  0  0  0  0  0  0
   -0.1631   -0.3845   -1.4454 C   0  0  0  0  0  0  0  0  0  0  0  0
   -1.1393   -0.6696   -0.5081 C   0  0  0  0  0  0  0  0  0  0  0  0
   -1.5874    0.1797    0.6493 C   0  0  0  0  0  0  0  0  0  0  0  0
   -3.0932    0.2104    0.6186 C   0  0  0  0  0  0  0  0  0  0  0  0
   -3.6321    0.6277   -0.4662 O   0  0  0  0  0  0  0  0  0  0  0  0
   -3.8736   -0.1836    1.6893 O   0  0  0  0  0  0  0  0  0  0  0  0
   -1.1395   -0.3117    1.9243 N   0  0  0  0  0  0  0  0  0  0  0  0
   -1.7090   -1.8976   -0.7869 C   0  0  0  0  0  0  0  0  0  0  0  0
   -1.0681   -2.3378   -1.8923 N   0  0  0  0  0  0  0  0  0  0  0  0
   -0.1643   -1.4605   -2.2823 N   0  0  0  0  0  0  0  0  0  0  0  0
    0.6313   -1.6686   -3.3887 O   0  0  0  0  0  0  0  0  0  0  0  0
    3.2600    1.3008    2.2387 H   0  0  0  0  0  0  0  0  0  0  0  0
    3.9419    1.1828    0.6116 H   0  0  0  0  0  0  0  0  0  0  0  0
    3.5621   -0.3408    1.5708 H   0  0  0  0  0  0  0  0  0  0  0  0
    1.3685   -0.3844    0.9287 H   0  0  0  0  0  0  0  0  0  0  0  0
    1.2123    1.4543    1.0797 H   0  0  0  0  0  0  0  0  0  0  0  0
    2.4489    1.7733   -0.9293 H   0  0  0  0  0  0  0  0  0  0  0  0
    2.7216    0.0080   -1.1636 H   0  0  0  0  0  0  0  0  0  0  0  0
    1.0206    0.9349   -2.6359 H   0  0  0  0  0  0  0  0  0  0  0  0
    0.1594    1.6909   -1.2354 H   0  0  0  0  0  0  0  0  0  0  0  0
   -1.2488    1.2265    0.5401 H   0  0  0  0  0  0  0  0  0  0  0  0
   -4.8879   -0.3102    1.6031 H   0  0  0  0  0  0  0  0  0  0  0  0
   -0.4936    0.3692    2.4037 H   0  0  0  0  0  0  0  0  0  0  0  0
   -1.9708   -0.3817    2.5483 H   0  0  0  0  0  0  0  0  0  0  0  0
   -2.5059   -2.4209   -0.2441 H   0  0  0  0  0  0  0  0  0  0  0  0
    0.5937   -1.0124   -4.1690 H   0  0  0  0  0  0  0  0  0  0  0  0
  1  2  1  0
  2  3  1  0
  3  4  1  0
  4  5  1  0
  5  6  2  0
  6  7  1  0
  7  8  1  0
  8  9  2  0
  8 10  1  0
  7 11  1  0
  6 12  1  0
 12 13  2  0
 13 14  1  0
 14 15  1  0
 14  5  1  0
  1 16  1  0
  1 17  1  0
  1 18  1  0
  2 19  1  0
  2 20  1  0
  3 21  1  0
  3 22  1  0
  4 23  1  0
  4 24  1  0
  7 25  1  0
 10 26  1  0
 11 27  1  0
 11 28  1  0
 12 29  1  0
 15 30  1  0
M  END
>  <Ligand ID>  (1) 
LIG0001866

>  <Ligand>  (1) 
CHEMBL242343

>  <SMILES>  (1) 
CCCCc1c(C(C(=O)O)N)cnn1O

>  <CID>  (1) 
44428732.0

>  <ChEMBL ID>  (1) 
nan

>  <InChiKey>  (1) 
KDPDAFLQIXWRLG-UHFFFAOYSA-N

>  <InChi>  (1) 
InChI=1S/C9H15N3O3/c1-2-3-4-7-6(5-11-12(7)15)8(10)9(13)14/h5,8,15H,2-4,10H2,1H3,(H,13,14)

>  <IUPAC Name>  (1) 
2-amino-2-(5-butyl-1-hydroxypyrazol-4-yl)acetic acid

$$$$
