
     RDKit          3D

133135  0  0  0  0  0  0  0  0999 V2000
   10.9581    3.3732    1.0677 N   0  0  0  0  0  0  0  0  0  0  0  0
   10.0291    2.7373    1.9510 C   0  0  0  0  0  0  0  0  0  0  0  0
    9.1600    1.7131    1.3029 C   0  0  0  0  0  0  0  0  0  0  0  0
    8.2151    2.1840    0.2384 C   0  0  1  0  0  0  0  0  0  0  0  0
    8.9152    2.8217   -0.8890 C   0  0  0  0  0  0  0  0  0  0  0  0
    9.2618    4.0255   -0.7454 O   0  0  0  0  0  0  0  0  0  0  0  0
    9.2234    2.1982   -2.1081 N   0  0  0  0  0  0  0  0  0  0  0  0
    9.8523    2.7396   -3.2661 C   0  0  0  0  0  0  0  0  0  0  0  0
   11.1471    3.4035   -3.1125 C   0  0  0  0  0  0  0  0  0  0  0  0
   11.6805    3.8194   -4.2224 O   0  0  0  0  0  0  0  0  0  0  0  0
   11.8984    3.6639   -1.9654 N   0  0  0  0  0  0  0  0  0  0  0  0
    7.5291    0.9581   -0.2208 N   0  0  0  0  0  0  0  0  0  0  0  0
    6.0735    0.9211   -0.0004 C   0  0  0  0  0  0  0  0  0  0  0  0
    5.6010    1.8978    0.5494 O   0  0  0  0  0  0  0  0  0  0  0  0
    5.4444   -0.3169   -0.5018 C   0  0  2  0  0  0  0  0  0  0  0  0
    5.5069   -0.1917   -2.0409 C   0  0  0  0  0  0  0  0  0  0  0  0
    4.3525   -0.9866   -2.5126 C   0  0  0  0  0  0  0  0  0  0  0  0
    3.6091   -1.4367   -1.2864 C   0  0  0  0  0  0  0  0  0  0  0  0
    4.0792   -0.5553   -0.1864 N   0  0  0  0  0  0  0  0  0  0  0  0
    3.2322   -0.1422    0.8537 C   0  0  0  0  0  0  0  0  0  0  0  0
    3.8381    0.6470    1.7201 O   0  0  0  0  0  0  0  0  0  0  0  0
    1.8598   -0.3803    1.1709 C   0  0  2  0  0  0  0  0  0  0  0  0
    1.4176    0.0867    2.5410 C   0  0  0  0  0  0  0  0  0  0  0  0
    1.6156    1.8815    2.7287 S   0  0  0  0  0  0  0  0  0  0  0  0
    0.5550    2.9504    1.2884 S   0  0  0  0  0  0  0  0  0  0  0  0
   -1.1335    3.2850    1.8170 C   0  0  0  0  0  0  0  0  0  0  0  0
   -1.8709    1.9769    2.0587 C   0  0  2  0  0  0  0  0  0  0  0  0
   -1.1701    1.0127    1.1060 N   0  0  0  0  0  0  0  0  0  0  0  0
   -3.2056    1.9577    1.4164 C   0  0  0  0  0  0  0  0  0  0  0  0
   -3.2168    1.2738    0.3387 O   0  0  0  0  0  0  0  0  0  0  0  0
   -4.4261    2.5351    1.7559 N   0  0  0  0  0  0  0  0  0  0  0  0
   -5.5775    2.2131    0.9289 C   0  0  1  0  0  0  0  0  0  0  0  0
   -5.7816    2.8948   -0.3334 C   0  0  0  0  0  0  0  0  0  0  0  0
   -5.9378    4.4114   -0.2064 C   0  0  0  0  0  0  0  0  0  0  0  0
   -6.1602    4.9490   -1.6079 C   0  0  0  0  0  0  0  0  0  0  0  0
   -7.4918    5.6576   -1.5984 C   0  0  0  0  0  0  0  0  0  0  0  0
   -7.8773    5.8385   -0.1580 C   0  0  0  0  0  0  0  0  0  0  0  0
   -7.2568    4.6302    0.5114 C   0  0  0  0  0  0  0  0  0  0  0  0
   -5.6830    0.7158    0.7238 C   0  0  0  0  0  0  0  0  0  0  0  0
   -6.0916    0.0308    1.6673 O   0  0  0  0  0  0  0  0  0  0  0  0
   -5.3421    0.0598   -0.4573 N   0  0  0  0  0  0  0  0  0  0  0  0
   -5.3907   -1.4055   -0.6819 C   0  0  2  0  0  0  0  0  0  0  0  0
   -4.4306   -2.0475    0.2533 C   0  0  0  0  0  0  0  0  0  0  0  0
   -4.0098   -1.4324    1.2705 O   0  0  0  0  0  0  0  0  0  0  0  0
   -3.8698   -3.3472    0.1547 N   0  0  0  0  0  0  0  0  0  0  0  0
   -3.0955   -3.9831    1.2008 C   0  0  2  0  0  0  0  0  0  0  0  0
   -1.6553   -4.0956    1.0551 C   0  0  0  0  0  0  0  0  0  0  0  0
   -1.0831   -4.8232    1.9572 O   0  0  0  0  0  0  0  0  0  0  0  0
   -0.7361   -3.5677    0.1290 N   0  0  0  0  0  0  0  0  0  0  0  0
    0.6779   -4.0162    0.2747 C   0  0  2  0  0  0  0  0  0  0  0  0
    1.5481   -2.8872    0.7559 C   0  0  0  0  0  0  0  0  0  0  0  0
    2.6874   -3.0288    1.2078 O   0  0  0  0  0  0  0  0  0  0  0  0
    1.1041   -1.5122    0.7229 N   0  0  0  0  0  0  0  0  0  0  0  0
    1.1836   -4.4169   -1.0966 C   0  0  0  0  0  0  0  0  0  0  0  0
    2.5558   -4.9335   -1.0504 C   0  0  0  0  0  0  0  0  0  0  0  0
    3.2358   -5.1684   -0.0403 O   0  0  0  0  0  0  0  0  0  0  0  0
    3.1788   -5.1973   -2.3202 N   0  0  0  0  0  0  0  0  0  0  0  0
   -3.6401   -5.4256    1.2921 C   0  0  0  0  0  0  0  0  0  0  0  0
   -5.0988   -5.4562    1.6502 C   0  0  0  0  0  0  0  0  0  0  0  0
   -5.3271   -4.8927    2.9941 C   0  0  0  0  0  0  0  0  0  0  0  0
   -4.4134   -4.5699    3.7984 O   0  0  0  0  0  0  0  0  0  0  0  0
   -6.6706   -4.6806    3.4576 N   0  0  0  0  0  0  0  0  0  0  0  0
   -5.3044   -1.6738   -2.1147 C   0  0  2  0  0  0  0  0  0  0  0  0
   -6.5022   -0.9196   -2.7581 C   0  0  0  0  0  0  0  0  0  0  0  0
   -7.7937   -1.4253   -2.1944 C   0  0  0  0  0  0  0  0  0  0  0  0
   -5.4954   -3.1204   -2.5118 C   0  0  0  0  0  0  0  0  0  0  0  0
   11.5586    4.0896    1.5055 H   0  0  0  0  0  0  0  0  0  0  0  0
   11.6211    2.6869    0.6255 H   0  0  0  0  0  0  0  0  0  0  0  0
   10.6402    2.2096    2.7301 H   0  0  0  0  0  0  0  0  0  0  0  0
    9.3740    3.5287    2.4015 H   0  0  0  0  0  0  0  0  0  0  0  0
    8.5271    1.2232    2.1239 H   0  0  0  0  0  0  0  0  0  0  0  0
    9.7572    0.8544    0.8888 H   0  0  0  0  0  0  0  0  0  0  0  0
    7.5101    2.9020    0.6925 H   0  0  0  0  0  0  0  0  0  0  0  0
    8.9232    1.1727   -2.1700 H   0  0  0  0  0  0  0  0  0  0  0  0
   10.0847    1.8459   -3.9695 H   0  0  0  0  0  0  0  0  0  0  0  0
    9.1254    3.3473   -3.8894 H   0  0  0  0  0  0  0  0  0  0  0  0
   12.5770    3.0223   -1.4968 H   0  0  0  0  0  0  0  0  0  0  0  0
   11.7915    4.6098   -1.5123 H   0  0  0  0  0  0  0  0  0  0  0  0
    8.0231    0.1699   -0.6592 H   0  0  0  0  0  0  0  0  0  0  0  0
    6.0633   -1.2246   -0.2503 H   0  0  0  0  0  0  0  0  0  0  0  0
    6.4957   -0.5427   -2.4020 H   0  0  0  0  0  0  0  0  0  0  0  0
    5.3582    0.8977   -2.2737 H   0  0  0  0  0  0  0  0  0  0  0  0
    3.6522   -0.4455   -3.1910 H   0  0  0  0  0  0  0  0  0  0  0  0
    4.7793   -1.8858   -3.0563 H   0  0  0  0  0  0  0  0  0  0  0  0
    2.5292   -1.2814   -1.3828 H   0  0  0  0  0  0  0  0  0  0  0  0
    3.9357   -2.4678   -1.0837 H   0  0  0  0  0  0  0  0  0  0  0  0
    1.3671    0.4832    0.4685 H   0  0  0  0  0  0  0  0  0  0  0  0
    0.4669   -0.3107    2.8929 H   0  0  0  0  0  0  0  0  0  0  0  0
    2.1863   -0.3426    3.2631 H   0  0  0  0  0  0  0  0  0  0  0  0
   -1.6738    3.9203    1.0968 H   0  0  0  0  0  0  0  0  0  0  0  0
   -1.1402    3.7978    2.8053 H   0  0  0  0  0  0  0  0  0  0  0  0
   -1.7910    1.5523    3.0357 H   0  0  0  0  0  0  0  0  0  0  0  0
   -1.3265    1.3249    0.1452 H   0  0  0  0  0  0  0  0  0  0  0  0
   -1.5628    0.0673    1.2420 H   0  0  0  0  0  0  0  0  0  0  0  0
   -4.4491    3.1612    2.5624 H   0  0  0  0  0  0  0  0  0  0  0  0
   -6.4660    2.4264    1.6109 H   0  0  0  0  0  0  0  0  0  0  0  0
   -5.1018    2.6467   -1.1813 H   0  0  0  0  0  0  0  0  0  0  0  0
   -6.7926    2.5717   -0.7162 H   0  0  0  0  0  0  0  0  0  0  0  0
   -5.0774    4.8675    0.3131 H   0  0  0  0  0  0  0  0  0  0  0  0
   -6.2230    4.1308   -2.3651 H   0  0  0  0  0  0  0  0  0  0  0  0
   -5.3742    5.6252   -1.9662 H   0  0  0  0  0  0  0  0  0  0  0  0
   -8.2848    5.0001   -2.0629 H   0  0  0  0  0  0  0  0  0  0  0  0
   -7.4030    6.6320   -2.0877 H   0  0  0  0  0  0  0  0  0  0  0  0
   -8.9795    5.7581   -0.0146 H   0  0  0  0  0  0  0  0  0  0  0  0
   -7.4402    6.7501    0.2802 H   0  0  0  0  0  0  0  0  0  0  0  0
   -7.9450    3.7682    0.2570 H   0  0  0  0  0  0  0  0  0  0  0  0
   -7.1431    4.7442    1.6020 H   0  0  0  0  0  0  0  0  0  0  0  0
   -5.0533    0.6215   -1.2543 H   0  0  0  0  0  0  0  0  0  0  0  0
   -6.4365   -1.6533   -0.2567 H   0  0  0  0  0  0  0  0  0  0  0  0
   -4.0067   -3.8470   -0.7117 H   0  0  0  0  0  0  0  0  0  0  0  0
   -3.2661   -3.4558    2.1800 H   0  0  0  0  0  0  0  0  0  0  0  0
   -1.0582   -2.9278   -0.5674 H   0  0  0  0  0  0  0  0  0  0  0  0
    0.7979   -4.8206    0.9885 H   0  0  0  0  0  0  0  0  0  0  0  0
    0.1479   -1.4222    0.3402 H   0  0  0  0  0  0  0  0  0  0  0  0
    0.4910   -5.1692   -1.5577 H   0  0  0  0  0  0  0  0  0  0  0  0
    1.2137   -3.5340   -1.7838 H   0  0  0  0  0  0  0  0  0  0  0  0
    3.1265   -6.1690   -2.7329 H   0  0  0  0  0  0  0  0  0  0  0  0
    3.6816   -4.4115   -2.8260 H   0  0  0  0  0  0  0  0  0  0  0  0
   -3.0813   -5.9996    2.0836 H   0  0  0  0  0  0  0  0  0  0  0  0
   -3.4384   -5.9532    0.3355 H   0  0  0  0  0  0  0  0  0  0  0  0
   -5.6909   -4.8549    0.9057 H   0  0  0  0  0  0  0  0  0  0  0  0
   -5.4146   -6.5307    1.5803 H   0  0  0  0  0  0  0  0  0  0  0  0
   -6.9276   -3.6784    3.7299 H   0  0  0  0  0  0  0  0  0  0  0  0
   -7.3573   -5.4640    3.5328 H   0  0  0  0  0  0  0  0  0  0  0  0
   -4.3919   -1.2666   -2.5595 H   0  0  0  0  0  0  0  0  0  0  0  0
   -6.4530   -1.1543   -3.8596 H   0  0  0  0  0  0  0  0  0  0  0  0
   -6.3924    0.1531   -2.6717 H   0  0  0  0  0  0  0  0  0  0  0  0
   -8.1360   -0.8283   -1.3274 H   0  0  0  0  0  0  0  0  0  0  0  0
   -8.6150   -1.4906   -2.9377 H   0  0  0  0  0  0  0  0  0  0  0  0
   -7.6688   -2.4718   -1.7795 H   0  0  0  0  0  0  0  0  0  0  0  0
   -6.1699   -3.1307   -3.4393 H   0  0  0  0  0  0  0  0  0  0  0  0
   -6.0183   -3.7370   -1.7863 H   0  0  0  0  0  0  0  0  0  0  0  0
   -4.5428   -3.5184   -2.9137 H   0  0  0  0  0  0  0  0  0  0  0  0
  1  2  1  0
  2  3  1  0
  3  4  1  0
  4  5  1  0
  5  6  2  0
  5  7  1  0
  7  8  1  0
  8  9  1  0
  9 10  2  0
  9 11  1  0
  4 12  1  0
 12 13  1  0
 13 14  2  0
 13 15  1  0
 15 16  1  0
 16 17  1  0
 17 18  1  0
 18 19  1  0
 19 20  1  0
 20 21  2  0
 20 22  1  0
 22 23  1  0
 23 24  1  0
 24 25  1  0
 25 26  1  0
 26 27  1  0
 27 28  1  0
 27 29  1  0
 29 30  2  0
 29 31  1  0
 31 32  1  0
 32 33  1  0
 33 34  1  0
 34 35  1  0
 35 36  1  0
 36 37  1  0
 37 38  1  0
 32 39  1  0
 39 40  2  0
 39 41  1  0
 41 42  1  0
 42 43  1  0
 43 44  2  0
 43 45  1  0
 45 46  1  0
 46 47  1  0
 47 48  2  0
 47 49  1  0
 49 50  1  0
 50 51  1  0
 51 52  2  0
 51 53  1  0
 50 54  1  0
 54 55  1  0
 55 56  2  0
 55 57  1  0
 46 58  1  0
 58 59  1  0
 59 60  1  0
 60 61  2  0
 60 62  1  0
 42 63  1  0
 63 64  1  0
 64 65  1  0
 63 66  1  0
 19 15  1  0
 53 22  1  0
 38 34  1  0
  1 67  1  0
  1 68  1  0
  2 69  1  0
  2 70  1  0
  3 71  1  0
  3 72  1  0
  4 73  1  1
  7 74  1  0
  8 75  1  0
  8 76  1  0
 11 77  1  0
 11 78  1  0
 12 79  1  0
 15 80  1  6
 16 81  1  0
 16 82  1  0
 17 83  1  0
 17 84  1  0
 18 85  1  0
 18 86  1  0
 22 87  1  6
 23 88  1  0
 23 89  1  0
 26 90  1  0
 26 91  1  0
 27 92  1  1
 28 93  1  0
 28 94  1  0
 31 95  1  0
 32 96  1  1
 33 97  1  0
 33 98  1  0
 34 99  1  0
 35100  1  0
 35101  1  0
 36102  1  0
 36103  1  0
 37104  1  0
 37105  1  0
 38106  1  0
 38107  1  0
 41108  1  0
 42109  1  1
 45110  1  0
 46111  1  1
 49112  1  0
 50113  1  1
 53114  1  0
 54115  1  0
 54116  1  0
 57117  1  0
 57118  1  0
 58119  1  0
 58120  1  0
 59121  1  0
 59122  1  0
 62123  1  0
 62124  1  0
 63125  1  6
 64126  1  0
 64127  1  0
 65128  1  0
 65129  1  0
 65130  1  0
 66131  1  0
 66132  1  0
 66133  1  0
M  END
>  <Ligand ID>  (1) 
LIG0000930

>  <Ligand>  (1) 
CHEMBL1819554

>  <SMILES>  (1) 
NCC[C@@H](C(=O)NCC(=O)N)NC(=O)[C@@H]1CCCN1C(=O)[C@@H]1CSSC[C@H](N)C(=O)N[C@@H](CC2CCCC2)C(=O)N[C@H](C(=O)N[C@H](C(=O)N[C@H](C(=O)N1)CC(=O)N)CCC(=O)N)[C@H](CC)C

>  <CID>  (1) 
53362963.0

>  <ChEMBL ID>  (1) 
nan

>  <InChiKey>  (1) 
XJHIJHSBRVYSIE-LWHYKBHJSA-N

>  <InChi>  (1) 
InChI=1S/C40H67N13O11S2/c1-3-20(2)32-39(63)48-23(10-11-29(43)54)35(59)50-26(16-30(44)55)36(60)51-27(19-66-65-18-22(42)33(57)49-25(37(61)52-32)15-21-7-4-5-8-21)40(64)53-14-6-9-28(53)38(62)47-24(12-13-41)34(58)46-17-31(45)56/h20-28,32H,3-19,41-42H2,1-2H3,(H2,43,54)(H2,44,55)(H2,45,56)(H,46,58)(H,47,62)(H,48,63)(H,49,57)(H,50,59)(H,51,60)(H,52,61)/t20-,22-,23-,24-,25-,26-,27-,28-,32-/m0/s1

>  <IUPAC Name>  (1) 
(2S)-N-[(2S)-4-amino-1-[(2-amino-2-oxoethyl)amino]-1-oxobutan-2-yl]-1-[(4R,7S,10S,13S,16S,19R)-19-amino-7-(2-amino-2-oxoethyl)-10-(3-amino-3-oxopropyl)-13-[(2S)-butan-2-yl]-16-(cyclopentylmethyl)-6,9,12,15,18-pentaoxo-1,2-dithia-5,8,11,14,17-pentazacycloicosane-4-carbonyl]pyrrolidine-2-carboxamide

$$$$
