
     RDKit          3D

 33 34  0  0  0  0  0  0  0  0999 V2000
   -5.0647    1.5305   -0.6890 C   0  0  0  0  0  0  0  0  0  0  0  0
   -3.7387    1.2704   -1.0290 O   0  0  0  0  0  0  0  0  0  0  0  0
   -2.9046    0.3554   -0.4439 C   0  0  0  0  0  0  0  0  0  0  0  0
   -3.2982   -0.4637    0.6113 C   0  0  0  0  0  0  0  0  0  0  0  0
   -2.4194   -1.3797    1.1766 C   0  0  0  0  0  0  0  0  0  0  0  0
   -1.1294   -1.4768    0.6785 C   0  0  0  0  0  0  0  0  0  0  0  0
   -0.7567   -0.6566   -0.3684 C   0  0  0  0  0  0  0  0  0  0  0  0
   -1.6105    0.2595   -0.9450 C   0  0  0  0  0  0  0  0  0  0  0  0
    0.5573   -0.9337   -0.6865 C   0  0  0  0  0  0  0  0  0  0  0  0
    1.3973   -0.2981   -1.7541 C   0  0  0  0  0  0  0  0  0  0  0  0
    1.8541    1.0753   -1.3385 C   0  0  0  0  0  0  0  0  0  0  0  0
    2.6484    1.0728   -0.1345 N   0  0  0  0  0  0  0  0  0  0  0  0
    3.8778    0.3705   -0.0057 C   0  0  0  0  0  0  0  0  0  0  0  0
    4.3393   -0.2997   -0.9667 O   0  0  0  0  0  0  0  0  0  0  0  0
    4.6063    0.4509    1.3029 C   0  0  0  0  0  0  0  0  0  0  0  0
    0.9700   -1.9393    0.1914 C   0  0  0  0  0  0  0  0  0  0  0  0
   -0.0571   -2.2470    0.9983 N   0  0  0  0  0  0  0  0  0  0  0  0
   -5.5861    0.7025   -0.1695 H   0  0  0  0  0  0  0  0  0  0  0  0
   -5.1377    2.4121    0.0131 H   0  0  0  0  0  0  0  0  0  0  0  0
   -5.5950    1.8369   -1.6173 H   0  0  0  0  0  0  0  0  0  0  0  0
   -4.3103   -0.3806    0.9952 H   0  0  0  0  0  0  0  0  0  0  0  0
   -2.7219   -2.0202    1.9986 H   0  0  0  0  0  0  0  0  0  0  0  0
   -1.2815    0.8862   -1.7652 H   0  0  0  0  0  0  0  0  0  0  0  0
    0.8882   -0.2200   -2.7184 H   0  0  0  0  0  0  0  0  0  0  0  0
    2.2990   -0.9239   -1.9118 H   0  0  0  0  0  0  0  0  0  0  0  0
    1.0562    1.8168   -1.2707 H   0  0  0  0  0  0  0  0  0  0  0  0
    2.5020    1.4281   -2.1944 H   0  0  0  0  0  0  0  0  0  0  0  0
    2.3032    1.6209    0.7034 H   0  0  0  0  0  0  0  0  0  0  0  0
    4.4617    1.4828    1.7171 H   0  0  0  0  0  0  0  0  0  0  0  0
    5.6761    0.3187    1.0823 H   0  0  0  0  0  0  0  0  0  0  0  0
    4.2322   -0.3158    2.0030 H   0  0  0  0  0  0  0  0  0  0  0  0
    1.9773   -2.3691    0.1793 H   0  0  0  0  0  0  0  0  0  0  0  0
   -0.0344   -2.9665    1.7544 H   0  0  0  0  0  0  0  0  0  0  0  0
  1  2  1  0
  2  3  1  0
  3  4  2  0
  4  5  1  0
  5  6  2  0
  6  7  1  0
  7  8  2  0
  7  9  1  0
  9 10  1  0
 10 11  1  0
 11 12  1  0
 12 13  1  0
 13 14  2  0
 13 15  1  0
  9 16  2  0
 16 17  1  0
  8  3  1  0
 17  6  1  0
  1 18  1  0
  1 19  1  0
  1 20  1  0
  4 21  1  0
  5 22  1  0
  8 23  1  0
 10 24  1  0
 10 25  1  0
 11 26  1  0
 11 27  1  0
 12 28  1  0
 15 29  1  0
 15 30  1  0
 15 31  1  0
 16 32  1  0
 17 33  1  0
M  END
>  <Ligand ID>  (1) 
LIG0000451

>  <Ligand>  (1) 
[3H]melatonin

>  <SMILES>  (1) 
COc1ccc2c(c1)c(CCNC(=O)C)c[nH]2

>  <CID>  (1) 
896.0

>  <ChEMBL ID>  (1) 
nan

>  <InChiKey>  (1) 
DRLFMBDRBRZALE-UHFFFAOYSA-N

>  <InChi>  (1) 
InChI=1S/C13H16N2O2/c1-9(16)14-6-5-10-8-15-13-4-3-11(17-2)7-12(10)13/h3-4,7-8,15H,5-6H2,1-2H3,(H,14,16)

>  <IUPAC Name>  (1) 
N-[2-(5-methoxy-1H-indol-3-yl)ethyl]acetamide

$$$$
