
     RDKit          3D

 35 38  0  0  0  0  0  0  0  0999 V2000
    4.9464   -0.1295    1.2038 O   0  0  0  0  0  0  0  0  0  0  0  0
    3.6591   -0.0286    0.6976 C   0  0  0  0  0  0  0  0  0  0  0  0
    3.3225   -0.7321   -0.4650 C   0  0  0  0  0  0  0  0  0  0  0  0
    2.0460   -0.6519   -0.9953 C   0  0  0  0  0  0  0  0  0  0  0  0
    1.7170   -1.3479   -2.1426 O   0  0  0  0  0  0  0  0  0  0  0  0
    0.3835   -1.6472   -2.4706 C   0  0  0  0  0  0  0  0  0  0  0  0
   -0.4870   -1.3006   -1.3238 C   0  0  0  0  0  0  0  0  0  0  0  0
   -0.2421    0.1626   -0.9904 C   0  0  0  0  0  0  0  0  0  0  0  0
    1.1003    0.1540   -0.3346 C   0  0  0  0  0  0  0  0  0  0  0  0
    1.4051    0.8513    0.8037 C   0  0  0  0  0  0  0  0  0  0  0  0
    2.6855    0.7558    1.3142 C   0  0  0  0  0  0  0  0  0  0  0  0
    3.0207    1.4640    2.4828 O   0  0  0  0  0  0  0  0  0  0  0  0
   -1.3438    0.6431   -0.1678 C   0  0  0  0  0  0  0  0  0  0  0  0
   -1.4039    2.0028    0.1695 C   0  0  0  0  0  0  0  0  0  0  0  0
   -2.4227    2.5126    0.9469 C   0  0  0  0  0  0  0  0  0  0  0  0
   -3.4352    1.7172    1.4337 C   0  0  0  0  0  0  0  0  0  0  0  0
   -3.3929    0.3766    1.1112 C   0  0  0  0  0  0  0  0  0  0  0  0
   -2.3728   -0.1283    0.3338 C   0  0  0  0  0  0  0  0  0  0  0  0
   -2.3554   -1.5723   -0.0227 C   0  0  0  0  0  0  0  0  0  0  0  0
   -1.8655   -1.6277   -1.4174 N   0  0  0  0  0  0  0  0  0  0  0  0
    5.0865   -0.4443    2.1583 H   0  0  0  0  0  0  0  0  0  0  0  0
    4.0561   -1.3370   -0.9491 H   0  0  0  0  0  0  0  0  0  0  0  0
    0.1552   -1.0249   -3.3790 H   0  0  0  0  0  0  0  0  0  0  0  0
    0.2366   -2.7126   -2.7382 H   0  0  0  0  0  0  0  0  0  0  0  0
   -0.0864   -1.8838   -0.4366 H   0  0  0  0  0  0  0  0  0  0  0  0
   -0.2018    0.7508   -1.9426 H   0  0  0  0  0  0  0  0  0  0  0  0
    0.6920    1.4536    1.3036 H   0  0  0  0  0  0  0  0  0  0  0  0
    3.5733    2.3183    2.4252 H   0  0  0  0  0  0  0  0  0  0  0  0
   -0.6604    2.7110   -0.1694 H   0  0  0  0  0  0  0  0  0  0  0  0
   -2.4595    3.5667    1.2024 H   0  0  0  0  0  0  0  0  0  0  0  0
   -4.2491    2.0631    2.0416 H   0  0  0  0  0  0  0  0  0  0  0  0
   -4.1888   -0.2723    1.4884 H   0  0  0  0  0  0  0  0  0  0  0  0
   -1.5603   -2.0471    0.5854 H   0  0  0  0  0  0  0  0  0  0  0  0
   -3.3178   -2.0718    0.0810 H   0  0  0  0  0  0  0  0  0  0  0  0
   -2.0403   -2.5435   -1.8380 H   0  0  0  0  0  0  0  0  0  0  0  0
  1  2  1  0
  2  3  2  0
  3  4  1  0
  4  5  1  0
  5  6  1  0
  6  7  1  0
  7  8  1  0
  8  9  1  0
  9 10  1  0
 10 11  2  0
 11 12  1  0
  8 13  1  0
 13 14  2  0
 14 15  1  0
 15 16  2  0
 16 17  1  0
 17 18  2  0
 18 19  1  0
 19 20  1  0
 11  2  1  0
 18 13  1  0
  9  4  2  0
 20  7  1  0
  1 21  1  0
  3 22  1  0
  6 23  1  0
  6 24  1  0
  7 25  1  0
  8 26  1  0
 10 27  1  0
 12 28  1  0
 14 29  1  0
 15 30  1  0
 16 31  1  0
 17 32  1  0
 19 33  1  0
 19 34  1  0
 20 35  1  0
M  END
>  <Ligand ID>  (1) 
LIG0002913

>  <Ligand>  (1) 
Doxanthrine

>  <SMILES>  (1) 
Oc1cc2OCC3C(c2cc1O)c1ccccc1CN3

>  <CID>  (1) 
25142456.0

>  <ChEMBL ID>  (1) 
nan

>  <InChiKey>  (1) 
QDUNOUQOKOYLCH-UHFFFAOYSA-N

>  <InChi>  (1) 
InChI=1S/C16H15NO3/c18-13-5-11-15(6-14(13)19)20-8-12-16(11)10-4-2-1-3-9(10)7-17-12/h1-6,12,16-19H,7-8H2

>  <IUPAC Name>  (1) 
6a,7,8,12b-tetrahydro-6H-chromeno[3,4-c]isoquinoline-2,3-diol

$$$$
