
     RDKit          3D

 16 16  0  0  0  0  0  0  0  0999 V2000
    2.7447   -0.2411    0.0403 C   0  0  0  0  0  0  0  0  0  0  0  0
    1.7017    0.7144    0.0469 O   0  0  0  0  0  0  0  0  0  0  0  0
    0.3538    0.3931    0.0125 C   0  0  0  0  0  0  0  0  0  0  0  0
   -0.1211   -0.9008   -0.0323 C   0  0  0  0  0  0  0  0  0  0  0  0
   -1.4670   -1.1755   -0.0655 C   0  0  0  0  0  0  0  0  0  0  0  0
   -2.3497   -0.1103   -0.0528 C   0  0  0  0  0  0  0  0  0  0  0  0
   -1.9136    1.2103   -0.0080 C   0  0  0  0  0  0  0  0  0  0  0  0
   -0.5385    1.4452    0.0246 C   0  0  0  0  0  0  0  0  0  0  0  0
    2.4773   -1.1800   -0.4913 H   0  0  0  0  0  0  0  0  0  0  0  0
    3.6699    0.1784   -0.4108 H   0  0  0  0  0  0  0  0  0  0  0  0
    2.9547   -0.5369    1.0991 H   0  0  0  0  0  0  0  0  0  0  0  0
    0.5625   -1.7188   -0.0419 H   0  0  0  0  0  0  0  0  0  0  0  0
   -1.8025   -2.2158   -0.1006 H   0  0  0  0  0  0  0  0  0  0  0  0
   -3.3991   -0.3573   -0.0795 H   0  0  0  0  0  0  0  0  0  0  0  0
   -2.6384    2.0109    0.0004 H   0  0  0  0  0  0  0  0  0  0  0  0
   -0.2348    2.4840    0.0591 H   0  0  0  0  0  0  0  0  0  0  0  0
  1  2  1  0
  2  3  1  0
  3  4  2  0
  4  5  1  0
  5  6  2  0
  6  7  1  0
  7  8  2  0
  8  3  1  0
  1  9  1  0
  1 10  1  0
  1 11  1  0
  4 12  1  0
  5 13  1  0
  6 14  1  0
  7 15  1  0
  8 16  1  0
M  END
>  <Ligand ID>  (1) 
LIG0000140

>  <Ligand>  (1) 
anisole

>  <SMILES>  (1) 
COc1ccccc1

>  <CID>  (1) 
7519.0

>  <ChEMBL ID>  (1) 
nan

>  <InChiKey>  (1) 
RDOXTESZEPMUJZ-UHFFFAOYSA-N

>  <InChi>  (1) 
InChI=1S/C7H8O/c1-8-7-5-3-2-4-6-7/h2-6H,1H3

>  <IUPAC Name>  (1) 
anisole

$$$$
