
     RDKit          3D

 45 47  0  0  0  0  0  0  0  0999 V2000
   -1.0471   -2.8873    0.4119 O   0  0  0  0  0  0  0  0  0  0  0  0
    0.0667   -2.3224    0.2692 C   0  0  0  0  0  0  0  0  0  0  0  0
    1.1988   -3.0790    0.0053 C   0  0  0  0  0  0  0  0  0  0  0  0
    2.3836   -2.3872   -0.1383 C   0  0  0  0  0  0  0  0  0  0  0  0
    2.4778   -1.0154   -0.0320 C   0  0  0  0  0  0  0  0  0  0  0  0
    1.3227   -0.3570    0.2272 N   0  0  0  0  0  0  0  0  0  0  0  0
    0.1654   -0.9814    0.3721 N   0  0  0  0  0  0  0  0  0  0  0  0
   -1.0507   -0.2369    0.6496 C   0  0  0  0  0  0  0  0  0  0  0  0
   -1.7248    0.1526   -0.6415 C   0  0  0  0  0  0  0  0  0  0  0  0
   -2.8980    0.8652   -0.5176 O   0  0  0  0  0  0  0  0  0  0  0  0
   -4.0806    0.5057    0.0378 C   0  0  0  0  0  0  0  0  0  0  0  0
   -4.4089   -0.6923    0.6083 C   0  0  0  0  0  0  0  0  0  0  0  0
   -5.6645   -0.9636    1.1540 C   0  0  0  0  0  0  0  0  0  0  0  0
   -6.6513   -0.0040    1.1369 C   0  0  0  0  0  0  0  0  0  0  0  0
   -6.3458    1.2052    0.5694 C   0  0  0  0  0  0  0  0  0  0  0  0
   -5.1015    1.4750    0.0286 C   0  0  0  0  0  0  0  0  0  0  0  0
   -4.8158    2.8081   -0.5788 C   0  0  0  0  0  0  0  0  0  0  0  0
   -4.4738    2.6428   -1.9079 F   0  0  0  0  0  0  0  0  0  0  0  0
   -3.7602    3.4421    0.0575 F   0  0  0  0  0  0  0  0  0  0  0  0
   -5.9793    3.5475   -0.5240 F   0  0  0  0  0  0  0  0  0  0  0  0
    3.6988   -0.3013   -0.1798 N   0  0  0  0  0  0  0  0  0  0  0  0
    3.6973    1.1406   -0.0512 C   0  0  0  0  0  0  0  0  0  0  0  0
    4.8972    1.7174   -0.7591 C   0  0  0  0  0  0  0  0  0  0  0  0
    6.0644    1.1904   -0.0880 N   0  0  0  0  0  0  0  0  0  0  0  0
    6.1604   -0.2312   -0.1092 C   0  0  0  0  0  0  0  0  0  0  0  0
    4.9236   -0.9766   -0.4519 C   0  0  0  0  0  0  0  0  0  0  0  0
    1.1403   -4.1555   -0.0809 H   0  0  0  0  0  0  0  0  0  0  0  0
    3.2674   -2.9694   -0.3437 H   0  0  0  0  0  0  0  0  0  0  0  0
   -1.6329   -0.8260    1.3410 H   0  0  0  0  0  0  0  0  0  0  0  0
   -0.7536    0.6926    1.1959 H   0  0  0  0  0  0  0  0  0  0  0  0
   -0.9959    0.8225   -1.1968 H   0  0  0  0  0  0  0  0  0  0  0  0
   -1.8956   -0.7762   -1.2476 H   0  0  0  0  0  0  0  0  0  0  0  0
   -3.7041   -1.4902    0.6453 H   0  0  0  0  0  0  0  0  0  0  0  0
   -5.8661   -1.9396    1.5962 H   0  0  0  0  0  0  0  0  0  0  0  0
   -7.6005   -0.2645    1.5705 H   0  0  0  0  0  0  0  0  0  0  0  0
   -7.1138    1.9570    0.5539 H   0  0  0  0  0  0  0  0  0  0  0  0
    2.7521    1.5693   -0.4811 H   0  0  0  0  0  0  0  0  0  0  0  0
    3.8006    1.3836    1.0272 H   0  0  0  0  0  0  0  0  0  0  0  0
    4.9020    2.8112   -0.6541 H   0  0  0  0  0  0  0  0  0  0  0  0
    4.9397    1.4757   -1.8206 H   0  0  0  0  0  0  0  0  0  0  0  0
    6.2340    1.6359    0.8399 H   0  0  0  0  0  0  0  0  0  0  0  0
    6.9940   -0.5058   -0.8168 H   0  0  0  0  0  0  0  0  0  0  0  0
    6.5663   -0.5309    0.8991 H   0  0  0  0  0  0  0  0  0  0  0  0
    4.9387   -1.1965   -1.5595 H   0  0  0  0  0  0  0  0  0  0  0  0
    4.9731   -1.9505    0.1179 H   0  0  0  0  0  0  0  0  0  0  0  0
  1  2  2  0
  2  3  1  0
  3  4  2  0
  4  5  1  0
  5  6  2  0
  6  7  1  0
  7  8  1  0
  8  9  1  0
  9 10  1  0
 10 11  1  0
 11 12  2  0
 12 13  1  0
 13 14  2  0
 14 15  1  0
 15 16  2  0
 16 17  1  0
 17 18  1  0
 17 19  1  0
 17 20  1  0
  5 21  1  0
 21 22  1  0
 22 23  1  0
 23 24  1  0
 24 25  1  0
 25 26  1  0
  7  2  1  0
 16 11  1  0
 26 21  1  0
  3 27  1  0
  4 28  1  0
  8 29  1  0
  8 30  1  0
  9 31  1  0
  9 32  1  0
 12 33  1  0
 13 34  1  0
 14 35  1  0
 15 36  1  0
 22 37  1  0
 22 38  1  0
 23 39  1  0
 23 40  1  0
 24 41  1  0
 25 42  1  0
 25 43  1  0
 26 44  1  0
 26 45  1  0
M  END
>  <Ligand ID>  (1) 
LIG0003152

>  <Ligand>  (1) 
CHEMBL569342

>  <SMILES>  (1) 
O=c1ccc(nn1CCOc1ccccc1C(F)(F)F)N1CCNCC1

>  <CID>  (1) 
45485781.0

>  <ChEMBL ID>  (1) 
nan

>  <InChiKey>  (1) 
HKGGAOLOQBKMKY-UHFFFAOYSA-N

>  <InChi>  (1) 
InChI=1S/C17H19F3N4O2/c18-17(19,20)13-3-1-2-4-14(13)26-12-11-24-16(25)6-5-15(22-24)23-9-7-21-8-10-23/h1-6,21H,7-12H2

>  <IUPAC Name>  (1) 
6-piperazin-1-yl-2-[2-[2-(trifluoromethyl)phenoxy]ethyl]pyridazin-3-one

$$$$
