
     RDKit          3D

 61 62  0  0  0  0  0  0  0  0999 V2000
    1.2862   -0.2679   -1.7184 O   0  0  0  0  0  0  0  0  0  0  0  0
    1.5768   -0.3633   -0.5027 C   0  0  0  0  0  0  0  0  0  0  0  0
    2.8761   -0.9639   -0.1290 C   0  0  1  0  0  0  0  0  0  0  0  0
    4.0115   -0.2776   -0.8490 C   0  0  0  0  0  0  0  0  0  0  0  0
    5.3134   -0.8760   -0.4765 C   0  0  0  0  0  0  0  0  0  0  0  0
    6.0189   -0.3607    0.6132 C   0  0  0  0  0  0  0  0  0  0  0  0
    7.2399   -0.9021    0.9822 C   0  0  0  0  0  0  0  0  0  0  0  0
    7.7066   -1.9520    0.2312 C   0  0  0  0  0  0  0  0  0  0  0  0
    7.0563   -2.4927   -0.8439 C   0  0  0  0  0  0  0  0  0  0  0  0
    5.8398   -1.9417   -1.1991 C   0  0  0  0  0  0  0  0  0  0  0  0
    8.8945   -2.4889    0.5879 F   0  0  0  0  0  0  0  0  0  0  0  0
    3.1186   -0.9462    1.2899 N   0  0  0  0  0  0  0  0  0  0  0  0
    0.6625    0.1021    0.4987 N   0  0  0  0  0  0  0  0  0  0  0  0
   -0.6107    0.6873    0.0271 C   0  0  2  0  0  0  0  0  0  0  0  0
   -0.8291    1.9852    0.7141 C   0  0  0  0  0  0  0  0  0  0  0  0
   -1.9591    2.7482    0.4215 N   0  0  0  0  0  0  0  0  0  0  0  0
   -2.0327    3.3671   -0.8768 C   0  0  0  0  0  0  0  0  0  0  0  0
   -2.6577    4.7607   -0.6806 C   0  0  0  0  0  0  0  0  0  0  0  0
   -3.9443    4.6969    0.0684 C   0  0  0  0  0  0  0  0  0  0  0  0
   -4.0013    3.7523    1.2158 C   0  0  0  0  0  0  0  0  0  0  0  0
   -3.2075    2.4628    1.0042 C   0  0  0  0  0  0  0  0  0  0  0  0
   -1.6502   -0.3609    0.4848 C   0  0  0  0  0  0  0  0  0  0  0  0
   -1.2390   -1.6678   -0.2065 C   0  0  0  0  0  0  0  0  0  0  0  0
   -2.2048   -2.7415    0.2162 C   0  0  0  0  0  0  0  0  0  0  0  0
   -3.5562   -2.4243   -0.1571 N   0  0  0  0  0  0  0  0  0  0  0  0
   -4.3475   -3.4143   -0.5083 C   0  0  0  0  0  0  0  0  0  0  0  0
   -3.7212   -4.7025   -0.4649 N   0  0  0  0  0  0  0  0  0  0  0  0
   -5.6941   -3.2190   -0.8838 N   0  0  0  0  0  0  0  0  0  0  0  0
    2.8954   -2.0471   -0.4628 H   0  0  0  0  0  0  0  0  0  0  0  0
    3.8837   -0.4001   -1.9425 H   0  0  0  0  0  0  0  0  0  0  0  0
    3.9855    0.8029   -0.5876 H   0  0  0  0  0  0  0  0  0  0  0  0
    5.6214    0.4799    1.1951 H   0  0  0  0  0  0  0  0  0  0  0  0
    7.7820   -0.4846    1.8368 H   0  0  0  0  0  0  0  0  0  0  0  0
    7.4802   -3.3356   -1.4101 H   0  0  0  0  0  0  0  0  0  0  0  0
    5.2827   -2.3327   -2.0466 H   0  0  0  0  0  0  0  0  0  0  0  0
    3.0782    0.0237    1.6454 H   0  0  0  0  0  0  0  0  0  0  0  0
    2.4571   -1.5503    1.8227 H   0  0  0  0  0  0  0  0  0  0  0  0
    0.8747    0.0410    1.5168 H   0  0  0  0  0  0  0  0  0  0  0  0
   -0.5707    0.7531   -1.0479 H   0  0  0  0  0  0  0  0  0  0  0  0
    0.0758    2.6208    0.4730 H   0  0  0  0  0  0  0  0  0  0  0  0
   -0.7245    1.8365    1.8289 H   0  0  0  0  0  0  0  0  0  0  0  0
   -1.0128    3.5517   -1.2211 H   0  0  0  0  0  0  0  0  0  0  0  0
   -2.6646    2.8292   -1.5844 H   0  0  0  0  0  0  0  0  0  0  0  0
   -2.8219    5.2291   -1.6624 H   0  0  0  0  0  0  0  0  0  0  0  0
   -1.9440    5.3770   -0.0655 H   0  0  0  0  0  0  0  0  0  0  0  0
   -4.8054    4.5352   -0.6217 H   0  0  0  0  0  0  0  0  0  0  0  0
   -4.1137    5.7316    0.5032 H   0  0  0  0  0  0  0  0  0  0  0  0
   -5.0577    3.4223    1.3458 H   0  0  0  0  0  0  0  0  0  0  0  0
   -3.6245    4.1925    2.1694 H   0  0  0  0  0  0  0  0  0  0  0  0
   -3.0824    2.0059    1.9812 H   0  0  0  0  0  0  0  0  0  0  0  0
   -3.8278    1.8746    0.2943 H   0  0  0  0  0  0  0  0  0  0  0  0
   -2.6517   -0.1509    0.1247 H   0  0  0  0  0  0  0  0  0  0  0  0
   -1.5497   -0.4744    1.5772 H   0  0  0  0  0  0  0  0  0  0  0  0
   -1.3222   -1.5684   -1.3089 H   0  0  0  0  0  0  0  0  0  0  0  0
   -0.1930   -1.9444    0.0230 H   0  0  0  0  0  0  0  0  0  0  0  0
   -1.8647   -3.7134   -0.1959 H   0  0  0  0  0  0  0  0  0  0  0  0
   -2.1442   -2.8204    1.3237 H   0  0  0  0  0  0  0  0  0  0  0  0
   -3.8156   -5.3500    0.3308 H   0  0  0  0  0  0  0  0  0  0  0  0
   -3.1405   -5.0099   -1.2734 H   0  0  0  0  0  0  0  0  0  0  0  0
   -6.3989   -3.9199   -0.6026 H   0  0  0  0  0  0  0  0  0  0  0  0
   -6.0318   -2.4043   -1.4320 H   0  0  0  0  0  0  0  0  0  0  0  0
  1  2  2  0
  2  3  1  0
  3  4  1  0
  4  5  1  0
  5  6  2  0
  6  7  1  0
  7  8  2  0
  8  9  1  0
  9 10  2  0
  8 11  1  0
  3 12  1  0
  2 13  1  0
 13 14  1  0
 14 15  1  0
 15 16  1  0
 16 17  1  0
 17 18  1  0
 18 19  1  0
 19 20  1  0
 20 21  1  0
 14 22  1  0
 22 23  1  0
 23 24  1  0
 24 25  1  0
 25 26  2  3
 26 27  1  0
 26 28  1  0
 10  5  1  0
 21 16  1  0
  3 29  1  6
  4 30  1  0
  4 31  1  0
  6 32  1  0
  7 33  1  0
  9 34  1  0
 10 35  1  0
 12 36  1  0
 12 37  1  0
 13 38  1  0
 14 39  1  6
 15 40  1  0
 15 41  1  0
 17 42  1  0
 17 43  1  0
 18 44  1  0
 18 45  1  0
 19 46  1  0
 19 47  1  0
 20 48  1  0
 20 49  1  0
 21 50  1  0
 21 51  1  0
 22 52  1  0
 22 53  1  0
 23 54  1  0
 23 55  1  0
 24 56  1  0
 24 57  1  0
 27 58  1  0
 27 59  1  0
 28 60  1  0
 28 61  1  0
M  END
>  <Ligand ID>  (1) 
LIG0003095

>  <Ligand>  (1) 
CHEMBL429742

>  <SMILES>  (1) 
O=C([C@@H](Cc1ccc(cc1)F)N)N[C@H](CN1CCCCC1)CCCN=C(N)N

>  <CID>  (1) 
44453826.0

>  <ChEMBL ID>  (1) 
nan

>  <InChiKey>  (1) 
QNBNBZCNHHZCFZ-ZWKOTPCHSA-N

>  <InChi>  (1) 
InChI=1S/C20H33FN6O/c21-16-8-6-15(7-9-16)13-18(22)19(28)26-17(5-4-10-25-20(23)24)14-27-11-2-1-3-12-27/h6-9,17-18H,1-5,10-14,22H2,(H,26,28)(H4,23,24,25)/t17-,18+/m0/s1

>  <IUPAC Name>  (1) 
(2R)-2-amino-N-[(2S)-5-(diaminomethylideneamino)-1-piperidin-1-ylpentan-2-yl]-3-(4-fluorophenyl)propanamide

$$$$
