
     RDKit          3D

 42 43  0  0  0  0  0  0  0  0999 V2000
   -6.1221    1.3260   -2.0065 O   0  0  0  0  0  0  0  0  0  0  0  0
   -6.0290    0.6413   -0.7850 C   0  0  0  0  0  0  0  0  0  0  0  0
   -6.2202    1.3688    0.2431 O   0  0  0  0  0  0  0  0  0  0  0  0
   -5.7346   -0.7930   -0.7278 C   0  0  0  0  0  0  0  0  0  0  0  0
   -4.2608   -1.0994   -0.4660 C   0  0  0  0  0  0  0  0  0  0  0  0
   -3.8965   -0.4875    0.8487 C   0  0  0  0  0  0  0  0  0  0  0  0
   -2.6017   -0.6471    1.2744 O   0  0  0  0  0  0  0  0  0  0  0  0
   -1.4048   -0.2642    0.7812 C   0  0  0  0  0  0  0  0  0  0  0  0
   -1.1803    0.4565   -0.3720 C   0  0  0  0  0  0  0  0  0  0  0  0
    0.0786    0.8140   -0.8142 C   0  0  0  0  0  0  0  0  0  0  0  0
    1.1677    0.4303   -0.0624 C   0  0  0  0  0  0  0  0  0  0  0  0
    1.0044   -0.2917    1.1007 C   0  0  0  0  0  0  0  0  0  0  0  0
   -0.2647   -0.6340    1.5164 C   0  0  0  0  0  0  0  0  0  0  0  0
   -0.4409   -1.4186    2.7777 C   0  0  0  0  0  0  0  0  0  0  0  0
    2.5371    0.7586   -0.4455 C   0  0  0  0  0  0  0  0  0  0  0  0
    3.5270   -0.2159   -0.3738 C   0  0  0  0  0  0  0  0  0  0  0  0
    4.8231    0.0855   -0.7337 C   0  0  0  0  0  0  0  0  0  0  0  0
    5.1810    1.3445   -1.1714 C   0  0  0  0  0  0  0  0  0  0  0  0
    4.2026    2.3100   -1.2427 C   0  0  0  0  0  0  0  0  0  0  0  0
    2.9023    2.0149   -0.8839 C   0  0  0  0  0  0  0  0  0  0  0  0
    1.9801    3.0031   -0.9733 F   0  0  0  0  0  0  0  0  0  0  0  0
    5.7973   -0.9023   -0.6546 O   0  0  0  0  0  0  0  0  0  0  0  0
    6.5540   -1.0983    0.5249 C   0  0  0  0  0  0  0  0  0  0  0  0
    7.4575   -2.1183    0.3930 F   0  0  0  0  0  0  0  0  0  0  0  0
    7.2179    0.0896    0.8241 F   0  0  0  0  0  0  0  0  0  0  0  0
    5.7048   -1.4122    1.5704 F   0  0  0  0  0  0  0  0  0  0  0  0
   -5.7667    2.2670   -2.1129 H   0  0  0  0  0  0  0  0  0  0  0  0
   -6.3760   -1.3001    0.0162 H   0  0  0  0  0  0  0  0  0  0  0  0
   -5.9452   -1.2211   -1.7416 H   0  0  0  0  0  0  0  0  0  0  0  0
   -4.2338   -2.2206   -0.3400 H   0  0  0  0  0  0  0  0  0  0  0  0
   -3.6351   -0.8579   -1.3178 H   0  0  0  0  0  0  0  0  0  0  0  0
   -4.6621   -0.8213    1.5862 H   0  0  0  0  0  0  0  0  0  0  0  0
   -4.0769    0.6305    0.7776 H   0  0  0  0  0  0  0  0  0  0  0  0
   -2.0082    0.7703   -0.9611 H   0  0  0  0  0  0  0  0  0  0  0  0
    0.2545    1.3796   -1.7209 H   0  0  0  0  0  0  0  0  0  0  0  0
    1.8619   -0.5892    1.6845 H   0  0  0  0  0  0  0  0  0  0  0  0
   -0.7811   -2.4568    2.5419 H   0  0  0  0  0  0  0  0  0  0  0  0
   -1.0933   -0.9120    3.4988 H   0  0  0  0  0  0  0  0  0  0  0  0
    0.5387   -1.5388    3.2601 H   0  0  0  0  0  0  0  0  0  0  0  0
    3.2122   -1.1910   -0.0269 H   0  0  0  0  0  0  0  0  0  0  0  0
    6.2162    1.5099   -1.4368 H   0  0  0  0  0  0  0  0  0  0  0  0
    4.5151    3.2905   -1.5901 H   0  0  0  0  0  0  0  0  0  0  0  0
  1  2  1  0
  2  3  2  0
  2  4  1  0
  4  5  1  0
  5  6  1  0
  6  7  1  0
  7  8  1  0
  8  9  2  0
  9 10  1  0
 10 11  2  0
 11 12  1  0
 12 13  2  0
 13 14  1  0
 11 15  1  0
 15 16  2  0
 16 17  1  0
 17 18  2  0
 18 19  1  0
 19 20  2  0
 20 21  1  0
 17 22  1  0
 22 23  1  0
 23 24  1  0
 23 25  1  0
 23 26  1  0
 13  8  1  0
 20 15  1  0
  1 27  1  0
  4 28  1  0
  4 29  1  0
  5 30  1  0
  5 31  1  0
  6 32  1  0
  6 33  1  0
  9 34  1  0
 10 35  1  0
 12 36  1  0
 14 37  1  0
 14 38  1  0
 14 39  1  0
 16 40  1  0
 18 41  1  0
 19 42  1  0
M  END
>  <Ligand ID>  (1) 
LIG0003624

>  <Ligand>  (1) 
CHEMBL3900990

>  <SMILES>  (1) 
OC(=O)CCCOc1ccc(cc1C)c1cc(ccc1F)OC(F)(F)F

>  <CID>  (1) 
134133297.0

>  <ChEMBL ID>  (1) 
nan

>  <InChiKey>  (1) 
NIWINBARFFCWGP-UHFFFAOYSA-N

>  <InChi>  (1) 
InChI=1S/C18H16F4O4/c1-11-9-12(4-7-16(11)25-8-2-3-17(23)24)14-10-13(5-6-15(14)19)26-18(20,21)22/h4-7,9-10H,2-3,8H2,1H3,(H,23,24)

>  <IUPAC Name>  (1) 
4-[4-[2-fluoro-5-(trifluoromethoxy)phenyl]-2-methylphenoxy]butanoic acid

$$$$
