
     RDKit          3D

 30 29  0  0  0  0  0  0  0  0999 V2000
   -4.8744    0.3325   -0.2112 C   0  0  0  0  0  0  0  0  0  0  0  0
   -3.4719   -0.1728   -0.3929 C   0  0  0  0  0  0  0  0  0  0  0  0
   -2.4972    0.5012    0.5736 C   0  0  0  0  0  0  0  0  0  0  0  0
   -1.1468   -0.1144    0.2610 C   0  0  0  0  0  0  0  0  0  0  0  0
   -0.0499    0.4252    1.1155 C   0  0  0  0  0  0  0  0  0  0  0  0
    1.3138   -0.2110    0.7900 C   0  0  0  0  0  0  0  0  0  0  0  0
    1.7417    0.0154   -0.6155 C   0  0  0  0  0  0  0  0  0  0  0  0
    3.0700   -0.6173   -0.9229 C   0  0  0  0  0  0  0  0  0  0  0  0
    4.1444   -0.0623   -0.0555 C   0  0  0  0  0  0  0  0  0  0  0  0
    5.3361   -0.7208   -0.4464 O   0  0  0  0  0  0  0  0  0  0  0  0
   -4.9153    1.3832    0.1300 H   0  0  0  0  0  0  0  0  0  0  0  0
   -5.4445   -0.3163    0.4969 H   0  0  0  0  0  0  0  0  0  0  0  0
   -5.3884    0.2194   -1.1991 H   0  0  0  0  0  0  0  0  0  0  0  0
   -3.0740    0.0039   -1.4007 H   0  0  0  0  0  0  0  0  0  0  0  0
   -3.4832   -1.2685   -0.2209 H   0  0  0  0  0  0  0  0  0  0  0  0
   -2.5160    1.5904    0.3765 H   0  0  0  0  0  0  0  0  0  0  0  0
   -2.7996    0.3639    1.6236 H   0  0  0  0  0  0  0  0  0  0  0  0
   -0.9412    0.1715   -0.8065 H   0  0  0  0  0  0  0  0  0  0  0  0
   -1.2484   -1.2036    0.3701 H   0  0  0  0  0  0  0  0  0  0  0  0
   -0.0096    1.5136    1.1709 H   0  0  0  0  0  0  0  0  0  0  0  0
   -0.2340    0.0864    2.1780 H   0  0  0  0  0  0  0  0  0  0  0  0
    2.0614    0.1316    1.5324 H   0  0  0  0  0  0  0  0  0  0  0  0
    1.1483   -1.3128    0.9478 H   0  0  0  0  0  0  0  0  0  0  0  0
    1.7979    1.1175   -0.8171 H   0  0  0  0  0  0  0  0  0  0  0  0
    0.9488   -0.3398   -1.3280 H   0  0  0  0  0  0  0  0  0  0  0  0
    2.9794   -1.7225   -0.8045 H   0  0  0  0  0  0  0  0  0  0  0  0
    3.3157   -0.4847   -2.0084 H   0  0  0  0  0  0  0  0  0  0  0  0
    3.9367   -0.2837    1.0129 H   0  0  0  0  0  0  0  0  0  0  0  0
    4.2435    1.0197   -0.2116 H   0  0  0  0  0  0  0  0  0  0  0  0
    6.0567   -0.0449   -0.5201 H   0  0  0  0  0  0  0  0  0  0  0  0
  1  2  1  0
  2  3  1  0
  3  4  1  0
  4  5  1  0
  5  6  1  0
  6  7  1  0
  7  8  1  0
  8  9  1  0
  9 10  1  0
  1 11  1  0
  1 12  1  0
  1 13  1  0
  2 14  1  0
  2 15  1  0
  3 16  1  0
  3 17  1  0
  4 18  1  0
  4 19  1  0
  5 20  1  0
  5 21  1  0
  6 22  1  0
  6 23  1  0
  7 24  1  0
  7 25  1  0
  8 26  1  0
  8 27  1  0
  9 28  1  0
  9 29  1  0
 10 30  1  0
M  END
>  <Ligand ID>  (1) 
LIG0000083

>  <Ligand>  (1) 
1-Nonanol

>  <SMILES>  (1) 
CCCCCCCCCO

>  <CID>  (1) 
8914.0

>  <ChEMBL ID>  (1) 
nan

>  <InChiKey>  (1) 
ZWRUINPWMLAQRD-UHFFFAOYSA-N

>  <InChi>  (1) 
InChI=1S/C9H20O/c1-2-3-4-5-6-7-8-9-10/h10H,2-9H2,1H3

>  <IUPAC Name>  (1) 
nonan-1-ol

$$$$
