
     RDKit          3D

 45 47  0  0  0  0  0  0  0  0999 V2000
   -7.2495    0.1009    0.9446 C   0  0  0  0  0  0  0  0  0  0  0  0
   -7.2978    0.4347   -0.4441 N   0  0  0  0  0  0  0  0  0  0  0  0
   -6.3211    1.7980   -0.8401 S   0  0  0  0  0  0  0  0  0  0  0  0
   -6.4735    2.0372   -2.3344 O   0  0  0  0  0  0  0  0  0  0  0  0
   -6.8155    3.0447   -0.1813 O   0  0  0  0  0  0  0  0  0  0  0  0
   -4.6455    1.4490   -0.4733 C   0  0  0  0  0  0  0  0  0  0  0  0
   -4.1066    1.7292    0.7656 C   0  0  0  0  0  0  0  0  0  0  0  0
   -2.7888    1.4644    1.0815 C   0  0  0  0  0  0  0  0  0  0  0  0
   -1.9688    0.8991    0.1339 C   0  0  0  0  0  0  0  0  0  0  0  0
   -2.5139    0.6214   -1.1027 C   0  0  0  0  0  0  0  0  0  0  0  0
   -3.8285    0.8817   -1.4289 C   0  0  0  0  0  0  0  0  0  0  0  0
   -0.5395    0.5947    0.4275 C   0  0  0  0  0  0  0  0  0  0  0  0
   -0.0219    0.8856    1.6792 C   0  0  0  0  0  0  0  0  0  0  0  0
    1.7205    0.3559    1.5837 S   0  0  0  0  0  0  0  0  0  0  0  0
    1.4919   -0.2054   -0.2054 C   0  0  0  0  0  0  0  0  0  0  0  0
    0.2594    0.0669   -0.4301 N   0  0  0  0  0  0  0  0  0  0  0  0
    2.5799   -0.7598   -0.9039 N   0  0  0  0  0  0  0  0  0  0  0  0
    3.8377   -0.8937   -0.2638 N   0  0  0  0  0  0  0  0  0  0  0  0
    4.9055   -0.9004   -0.9904 C   0  0  0  0  0  0  0  0  0  0  0  0
    6.2493   -1.0347   -0.4104 C   0  0  0  0  0  0  0  0  0  0  0  0
    7.3837   -1.0406   -1.1954 C   0  0  0  0  0  0  0  0  0  0  0  0
    8.6588   -1.1654   -0.6765 C   0  0  0  0  0  0  0  0  0  0  0  0
    8.7668   -1.2894    0.7134 C   0  0  0  0  0  0  0  0  0  0  0  0
    7.6412   -1.2858    1.5206 C   0  0  0  0  0  0  0  0  0  0  0  0
    6.3735   -1.1589    0.9709 C   0  0  0  0  0  0  0  0  0  0  0  0
   10.0164   -1.4194    1.3146 O   0  0  0  0  0  0  0  0  0  0  0  0
   -7.0853   -0.6695   -1.3330 C   0  0  0  0  0  0  0  0  0  0  0  0
   -8.1959   -0.3979    1.2373 H   0  0  0  0  0  0  0  0  0  0  0  0
   -6.4189   -0.6175    1.0816 H   0  0  0  0  0  0  0  0  0  0  0  0
   -7.0068    0.9928    1.5434 H   0  0  0  0  0  0  0  0  0  0  0  0
   -4.7129    2.1741    1.5430 H   0  0  0  0  0  0  0  0  0  0  0  0
   -2.4201    1.7051    2.0691 H   0  0  0  0  0  0  0  0  0  0  0  0
   -1.8666    0.1748   -1.8517 H   0  0  0  0  0  0  0  0  0  0  0  0
   -4.1708    0.6317   -2.4214 H   0  0  0  0  0  0  0  0  0  0  0  0
   -0.4770    1.3124    2.5279 H   0  0  0  0  0  0  0  0  0  0  0  0
    2.4442   -1.0595   -1.8699 H   0  0  0  0  0  0  0  0  0  0  0  0
    4.8096   -0.8042   -2.0597 H   0  0  0  0  0  0  0  0  0  0  0  0
    7.2804   -0.9438   -2.2665 H   0  0  0  0  0  0  0  0  0  0  0  0
    9.5329   -1.1673   -1.3132 H   0  0  0  0  0  0  0  0  0  0  0  0
    7.7279   -1.3830    2.6087 H   0  0  0  0  0  0  0  0  0  0  0  0
    5.4945   -1.1561    1.6008 H   0  0  0  0  0  0  0  0  0  0  0  0
   10.8678   -1.1321    0.8796 H   0  0  0  0  0  0  0  0  0  0  0  0
   -6.7882   -1.6024   -0.8125 H   0  0  0  0  0  0  0  0  0  0  0  0
   -8.0178   -0.8641   -1.9045 H   0  0  0  0  0  0  0  0  0  0  0  0
   -6.3107   -0.4031   -2.0605 H   0  0  0  0  0  0  0  0  0  0  0  0
  1  2  1  0
  2  3  1  0
  3  4  2  0
  3  5  2  0
  3  6  1  0
  6  7  2  0
  7  8  1  0
  8  9  2  0
  9 10  1  0
 10 11  2  0
  9 12  1  0
 12 13  2  0
 13 14  1  0
 14 15  1  0
 15 16  2  0
 15 17  1  0
 17 18  1  0
 18 19  2  0
 19 20  1  0
 20 21  2  0
 21 22  1  0
 22 23  2  0
 23 24  1  0
 24 25  2  0
 23 26  1  0
  2 27  1  0
 11  6  1  0
 16 12  1  0
 25 20  1  0
  1 28  1  0
  1 29  1  0
  1 30  1  0
  7 31  1  0
  8 32  1  0
 10 33  1  0
 11 34  1  0
 13 35  1  0
 17 36  1  0
 19 37  1  0
 21 38  1  0
 22 39  1  0
 24 40  1  0
 25 41  1  0
 26 42  1  0
 27 43  1  0
 27 44  1  0
 27 45  1  0
M  END
>  <Ligand ID>  (1) 
LIG0001967

>  <Ligand>  (1) 
AC1NYFWA

>  <SMILES>  (1) 
CN(S(=O)(=O)c1ccc(cc1)c1csc(n1)N/N=C/c1ccc(cc1)O)C

>  <CID>  (1) 
135548673.0

>  <ChEMBL ID>  (1) 
nan

>  <InChiKey>  (1) 
GZNPUNBLLSKMIS-YBFXNURJSA-N

>  <InChi>  (1) 
InChI=1S/C18H18N4O3S2/c1-22(2)27(24,25)16-9-5-14(6-10-16)17-12-26-18(20-17)21-19-11-13-3-7-15(23)8-4-13/h3-12,23H,1-2H3,(H,20,21)/b19-11+

>  <IUPAC Name>  (1) 
4-[2-[(2E)-2-[(4-hydroxyphenyl)methylidene]hydrazinyl]-1,3-thiazol-4-yl]-N,N-dimethylbenzenesulfonamide

$$$$
