
     RDKit          3D

 27 26  0  0  0  0  0  0  0  0999 V2000
   -4.3307    0.6435    0.7937 C   0  0  0  0  0  0  0  0  0  0  0  0
   -3.3483    0.2087   -0.2498 C   0  0  0  0  0  0  0  0  0  0  0  0
   -1.9859   -0.1725    0.3495 C   0  0  0  0  0  0  0  0  0  0  0  0
   -1.1307   -0.5874   -0.8074 C   0  0  0  0  0  0  0  0  0  0  0  0
    0.2561   -1.0103   -0.4539 C   0  0  0  0  0  0  0  0  0  0  0  0
    1.0819    0.0236    0.2021 C   0  0  0  0  0  0  0  0  0  0  0  0
    0.6873    1.1707    0.4253 O   0  0  0  0  0  0  0  0  0  0  0  0
    2.4646   -0.3515    0.6086 C   0  0  0  0  0  0  0  0  0  0  0  0
    3.4414    0.5951   -0.0138 C   0  0  0  0  0  0  0  0  0  0  0  0
    2.9851    1.4913   -0.7132 O   0  0  0  0  0  0  0  0  0  0  0  0
    4.8951    0.4988    0.1732 C   0  0  0  0  0  0  0  0  0  0  0  0
   -5.0261   -0.1807    1.0627 H   0  0  0  0  0  0  0  0  0  0  0  0
   -3.7996    0.9465    1.7254 H   0  0  0  0  0  0  0  0  0  0  0  0
   -4.9322    1.4694    0.3780 H   0  0  0  0  0  0  0  0  0  0  0  0
   -3.2130    1.0239   -0.9891 H   0  0  0  0  0  0  0  0  0  0  0  0
   -3.7259   -0.6665   -0.7934 H   0  0  0  0  0  0  0  0  0  0  0  0
   -2.2376   -1.0481    1.0167 H   0  0  0  0  0  0  0  0  0  0  0  0
   -1.5916    0.6480    0.9585 H   0  0  0  0  0  0  0  0  0  0  0  0
   -1.6327   -1.4432   -1.2992 H   0  0  0  0  0  0  0  0  0  0  0  0
   -1.1050    0.2463   -1.5433 H   0  0  0  0  0  0  0  0  0  0  0  0
    0.2887   -1.9771    0.0882 H   0  0  0  0  0  0  0  0  0  0  0  0
    0.7737   -1.2399   -1.4332 H   0  0  0  0  0  0  0  0  0  0  0  0
    2.5841   -0.3020    1.7220 H   0  0  0  0  0  0  0  0  0  0  0  0
    2.6872   -1.3788    0.3267 H   0  0  0  0  0  0  0  0  0  0  0  0
    5.2575    1.0085    1.0625 H   0  0  0  0  0  0  0  0  0  0  0  0
    5.4096    0.9502   -0.7078 H   0  0  0  0  0  0  0  0  0  0  0  0
    5.2470   -0.5665    0.2279 H   0  0  0  0  0  0  0  0  0  0  0  0
  1  2  1  0
  2  3  1  0
  3  4  1  0
  4  5  1  0
  5  6  1  0
  6  7  2  0
  6  8  1  0
  8  9  1  0
  9 10  2  0
  9 11  1  0
  1 12  1  0
  1 13  1  0
  1 14  1  0
  2 15  1  0
  2 16  1  0
  3 17  1  0
  3 18  1  0
  4 19  1  0
  4 20  1  0
  5 21  1  0
  5 22  1  0
  8 23  1  0
  8 24  1  0
 11 25  1  0
 11 26  1  0
 11 27  1  0
M  END
>  <Ligand ID>  (1) 
LIG0005021

>  <Ligand>  (1) 
nonane-2,4-dione

>  <SMILES>  (1) 
CCCCCC(=O)CC(=O)C

>  <CID>  (1) 
80314.0

>  <ChEMBL ID>  (1) 
nan

>  <InChiKey>  (1) 
KFBXUKHERGLHLG-UHFFFAOYSA-N

>  <InChi>  (1) 
InChI=1S/C9H16O2/c1-3-4-5-6-9(11)7-8(2)10/h3-7H2,1-2H3

>  <IUPAC Name>  (1) 
nonane-2,4-dione

$$$$
