
     RDKit          3D

 90 93  0  0  0  0  0  0  0  0999 V2000
   -8.2054   -0.8500    2.2144 C   0  0  0  0  0  0  0  0  0  0  0  0
   -7.4528   -0.4840    0.9985 C   0  0  0  0  0  0  0  0  0  0  0  0
   -7.9086   -0.6676   -0.1707 O   0  0  0  0  0  0  0  0  0  0  0  0
   -6.1671    0.0974    1.1211 N   0  0  0  0  0  0  0  0  0  0  0  0
   -5.3400    0.4947    0.0121 C   0  0  2  0  0  0  0  0  0  0  0  0
   -4.0494   -0.2875    0.0100 C   0  0  0  0  0  0  0  0  0  0  0  0
   -3.9470   -1.1102    0.9692 O   0  0  0  0  0  0  0  0  0  0  0  0
   -3.0586   -0.1052   -0.9800 N   0  0  0  0  0  0  0  0  0  0  0  0
   -1.8146   -0.8044   -1.0739 C   0  0  1  0  0  0  0  0  0  0  0  0
   -0.6896   -0.1418   -0.4382 C   0  0  0  0  0  0  0  0  0  0  0  0
   -0.7903    1.0115    0.0772 O   0  0  0  0  0  0  0  0  0  0  0  0
    0.5645   -0.8100   -0.3927 N   0  0  0  0  0  0  0  0  0  0  0  0
    1.7416   -0.1014    0.2701 C   0  0  2  0  0  0  0  0  0  0  0  0
    2.8381   -0.2318   -0.6992 C   0  0  0  0  0  0  0  0  0  0  0  0
    2.5402   -1.1312   -1.6199 O   0  0  0  0  0  0  0  0  0  0  0  0
    4.0686    0.3659   -0.8515 N   0  0  0  0  0  0  0  0  0  0  0  0
    4.6906    1.3907   -0.0112 C   0  0  0  0  0  0  0  0  0  0  0  0
    5.9881    0.7493    0.4171 C   0  0  0  0  0  0  0  0  0  0  0  0
    6.6663    1.3322    1.4646 C   0  0  0  0  0  0  0  0  0  0  0  0
    7.8580    0.7825    1.9079 C   0  0  0  0  0  0  0  0  0  0  0  0
    8.3729   -0.3529    1.3023 C   0  0  0  0  0  0  0  0  0  0  0  0
    7.7075   -0.9370    0.2632 C   0  0  0  0  0  0  0  0  0  0  0  0
    6.5147   -0.3689   -0.1653 C   0  0  0  0  0  0  0  0  0  0  0  0
    5.8639   -1.0690   -1.3314 C   0  0  0  0  0  0  0  0  0  0  0  0
    4.9651   -0.0376   -1.9655 C   0  0  1  0  0  0  0  0  0  0  0  0
    4.3636   -0.3172   -3.2285 C   0  0  0  0  0  0  0  0  0  0  0  0
    3.2267    0.0521   -3.6541 O   0  0  0  0  0  0  0  0  0  0  0  0
    5.1043   -1.1215   -4.1803 N   0  0  0  0  0  0  0  0  0  0  0  0
    1.8671   -0.8983    1.5245 C   0  0  0  0  0  0  0  0  0  0  0  0
    2.8868   -0.4208    2.4726 C   0  0  0  0  0  0  0  0  0  0  0  0
    2.5841    0.9596    3.0270 C   0  0  0  0  0  0  0  0  0  0  0  0
    3.6514    1.3243    3.9191 N   0  0  0  0  0  0  0  0  0  0  0  0
    4.1488    2.5063    3.8682 C   0  0  0  0  0  0  0  0  0  0  0  0
    5.2100    2.7868    4.7927 N   0  0  0  0  0  0  0  0  0  0  0  0
    3.7076    3.5085    2.9637 N   0  0  0  0  0  0  0  0  0  0  0  0
   -1.9645   -2.2736   -0.8700 C   0  0  0  0  0  0  0  0  0  0  0  0
   -2.8464   -2.8448   -1.9076 C   0  0  0  0  0  0  0  0  0  0  0  0
   -4.1834   -3.0768   -1.7980 C   0  0  0  0  0  0  0  0  0  0  0  0
   -4.8765   -3.5963   -2.8718 C   0  0  0  0  0  0  0  0  0  0  0  0
   -4.2987   -3.9059   -4.0797 C   0  0  0  0  0  0  0  0  0  0  0  0
   -2.9306   -3.6705   -4.1947 C   0  0  0  0  0  0  0  0  0  0  0  0
   -2.2459   -3.1580   -3.1359 C   0  0  0  0  0  0  0  0  0  0  0  0
   -5.0874    1.9885    0.0032 C   0  0  0  0  0  0  0  0  0  0  0  0
   -6.4163    2.6940   -0.0976 C   0  0  0  0  0  0  0  0  0  0  0  0
   -7.2271    3.1058    0.9526 C   0  0  0  0  0  0  0  0  0  0  0  0
   -8.3010    3.6815    0.3857 N   0  0  0  0  0  0  0  0  0  0  0  0
   -8.1593    3.6275   -0.9478 C   0  0  0  0  0  0  0  0  0  0  0  0
   -6.9972    3.0191   -1.2791 N   0  0  0  0  0  0  0  0  0  0  0  0
   -8.4111    0.0558    2.8229 H   0  0  0  0  0  0  0  0  0  0  0  0
   -7.6851   -1.6355    2.8122 H   0  0  0  0  0  0  0  0  0  0  0  0
   -9.1939   -1.2545    1.9144 H   0  0  0  0  0  0  0  0  0  0  0  0
   -5.7824    0.2540    2.0922 H   0  0  0  0  0  0  0  0  0  0  0  0
   -5.8767    0.2474   -0.9245 H   0  0  0  0  0  0  0  0  0  0  0  0
   -3.3054    0.6446   -1.7110 H   0  0  0  0  0  0  0  0  0  0  0  0
   -1.5702   -0.7443   -2.2124 H   0  0  0  0  0  0  0  0  0  0  0  0
    0.7336   -1.7609   -0.7853 H   0  0  0  0  0  0  0  0  0  0  0  0
    1.4549    0.9054    0.4595 H   0  0  0  0  0  0  0  0  0  0  0  0
    4.1000    1.7911    0.7758 H   0  0  0  0  0  0  0  0  0  0  0  0
    5.0348    2.2232   -0.7017 H   0  0  0  0  0  0  0  0  0  0  0  0
    6.3002    2.2281    1.9697 H   0  0  0  0  0  0  0  0  0  0  0  0
    8.4268    1.2036    2.7256 H   0  0  0  0  0  0  0  0  0  0  0  0
    9.3079   -0.8152    1.6233 H   0  0  0  0  0  0  0  0  0  0  0  0
    8.1161   -1.8183   -0.1999 H   0  0  0  0  0  0  0  0  0  0  0  0
    5.3056   -1.9453   -1.0111 H   0  0  0  0  0  0  0  0  0  0  0  0
    6.6262   -1.3604   -2.0747 H   0  0  0  0  0  0  0  0  0  0  0  0
    5.6738    0.8538   -2.1430 H   0  0  0  0  0  0  0  0  0  0  0  0
    4.6334   -2.0307   -4.4123 H   0  0  0  0  0  0  0  0  0  0  0  0
    6.0114   -0.8083   -4.5796 H   0  0  0  0  0  0  0  0  0  0  0  0
    1.9137   -1.9976    1.3287 H   0  0  0  0  0  0  0  0  0  0  0  0
    0.8610   -0.7887    2.0431 H   0  0  0  0  0  0  0  0  0  0  0  0
    3.8856   -0.4293    2.0170 H   0  0  0  0  0  0  0  0  0  0  0  0
    2.9704   -1.0714    3.3894 H   0  0  0  0  0  0  0  0  0  0  0  0
    1.6342    0.8089    3.6273 H   0  0  0  0  0  0  0  0  0  0  0  0
    2.4155    1.7395    2.2983 H   0  0  0  0  0  0  0  0  0  0  0  0
    5.7087    3.7028    4.7910 H   0  0  0  0  0  0  0  0  0  0  0  0
    5.5301    2.0953    5.5026 H   0  0  0  0  0  0  0  0  0  0  0  0
    4.4584    4.0106    2.4185 H   0  0  0  0  0  0  0  0  0  0  0  0
    2.7023    3.7616    2.8197 H   0  0  0  0  0  0  0  0  0  0  0  0
   -2.3925   -2.4794    0.1216 H   0  0  0  0  0  0  0  0  0  0  0  0
   -0.9984   -2.8238   -0.9735 H   0  0  0  0  0  0  0  0  0  0  0  0
   -4.7232   -2.8846   -0.9077 H   0  0  0  0  0  0  0  0  0  0  0  0
   -5.9421   -3.7765   -2.7717 H   0  0  0  0  0  0  0  0  0  0  0  0
   -4.8826   -4.3136   -4.8994 H   0  0  0  0  0  0  0  0  0  0  0  0
   -2.4965   -3.9211   -5.1491 H   0  0  0  0  0  0  0  0  0  0  0  0
   -1.1722   -2.9902   -3.2772 H   0  0  0  0  0  0  0  0  0  0  0  0
   -4.4427    2.2974   -0.8321 H   0  0  0  0  0  0  0  0  0  0  0  0
   -4.6006    2.2994    0.9479 H   0  0  0  0  0  0  0  0  0  0  0  0
   -6.9718    2.9555    1.9719 H   0  0  0  0  0  0  0  0  0  0  0  0
   -8.8804    4.0181   -1.6489 H   0  0  0  0  0  0  0  0  0  0  0  0
   -6.6493    2.8498   -2.2496 H   0  0  0  0  0  0  0  0  0  0  0  0
  1  2  1  0
  2  3  2  0
  2  4  1  0
  4  5  1  0
  5  6  1  0
  6  7  2  0
  6  8  1  0
  8  9  1  0
  9 10  1  0
 10 11  2  0
 10 12  1  0
 12 13  1  0
 13 14  1  0
 14 15  2  0
 14 16  1  0
 16 17  1  0
 17 18  1  0
 18 19  2  0
 19 20  1  0
 20 21  2  0
 21 22  1  0
 22 23  2  0
 23 24  1  0
 24 25  1  0
 25 26  1  0
 26 27  2  0
 26 28  1  0
 13 29  1  0
 29 30  1  0
 30 31  1  0
 31 32  1  0
 32 33  2  3
 33 34  1  0
 33 35  1  0
  9 36  1  0
 36 37  1  0
 37 38  2  0
 38 39  1  0
 39 40  2  0
 40 41  1  0
 41 42  2  0
  5 43  1  0
 43 44  1  0
 44 45  2  0
 45 46  1  0
 46 47  2  0
 47 48  1  0
 25 16  1  0
 42 37  1  0
 48 44  1  0
 23 18  1  0
  1 49  1  0
  1 50  1  0
  1 51  1  0
  4 52  1  0
  5 53  1  6
  8 54  1  0
  9 55  1  6
 12 56  1  0
 13 57  1  1
 17 58  1  0
 17 59  1  0
 19 60  1  0
 20 61  1  0
 21 62  1  0
 22 63  1  0
 24 64  1  0
 24 65  1  0
 25 66  1  6
 28 67  1  0
 28 68  1  0
 29 69  1  0
 29 70  1  0
 30 71  1  0
 30 72  1  0
 31 73  1  0
 31 74  1  0
 34 75  1  0
 34 76  1  0
 35 77  1  0
 35 78  1  0
 36 79  1  0
 36 80  1  0
 38 81  1  0
 39 82  1  0
 40 83  1  0
 41 84  1  0
 42 85  1  0
 43 86  1  0
 43 87  1  0
 45 88  1  0
 47 89  1  0
 48 90  1  0
M  END
>  <Ligand ID>  (1) 
LIG0001437

>  <Ligand>  (1) 
CHEMBL2096693

>  <SMILES>  (1) 
CC(=O)N[C@H](C(=O)N[C@@H](C(=O)N[C@H](C(=O)N1Cc2ccccc2C[C@H]1C(=O)N)CCCN=C(N)N)Cc1ccccc1)Cc1cnc[nH]1

>  <CID>  (1) 
10349384.0

>  <ChEMBL ID>  (1) 
nan

>  <InChiKey>  (1) 
MNPGXWWVUBHRNN-PUHABZHSSA-N

>  <InChi>  (1) 
InChI=1S/C33H42N10O5/c1-20(44)40-27(16-24-17-37-19-39-24)31(47)42-26(14-21-8-3-2-4-9-21)30(46)41-25(12-7-13-38-33(35)36)32(48)43-18-23-11-6-5-10-22(23)15-28(43)29(34)45/h2-6,8-11,17,19,25-28H,7,12-16,18H2,1H3,(H2,34,45)(H,37,39)(H,40,44)(H,41,46)(H,42,47)(H4,35,36,38)/t25-,26+,27-,28-/m0/s1

>  <IUPAC Name>  (1) 
(3S)-2-[(2S)-2-[[(2R)-2-[[(2S)-2-acetamido-3-(1H-imidazol-5-yl)propanoyl]amino]-3-phenylpropanoyl]amino]-5-(diaminomethylideneamino)pentanoyl]-3,4-dihydro-1H-isoquinoline-3-carboxamide

$$$$
