
     RDKit          3D

 67 74  0  0  0  0  0  0  0  0999 V2000
    1.3197   -2.8591   -2.0635 C   0  0  0  0  0  0  0  0  0  0  0  0
    0.4002   -3.0155   -0.9989 N   0  0  0  0  0  0  0  0  0  0  0  0
   -0.9154   -3.2696   -1.5146 C   0  0  0  0  0  0  0  0  0  0  0  0
   -1.5222   -1.9629   -1.9606 C   0  0  0  0  0  0  0  0  0  0  0  0
   -1.5336   -1.0484   -0.7721 C   0  0  2  0  0  0  0  0  0  0  0  0
   -0.1654   -0.7347   -0.2609 C   0  0  2  0  0  0  0  0  0  0  0  0
    0.4500   -2.0809    0.0717 C   0  0  0  0  0  0  0  0  0  0  0  0
   -0.2457   -2.7120    1.2440 C   0  0  0  0  0  0  0  0  0  0  0  0
   -1.7072   -2.4755    1.2501 C   0  0  0  0  0  0  0  0  0  0  0  0
   -2.2731   -1.6733    0.3219 C   0  0  0  0  0  0  0  0  0  0  0  0
   -3.5855   -1.3363    0.2283 C   0  0  0  0  0  0  0  0  0  0  0  0
   -3.7035   -0.4917   -0.8670 O   0  0  0  0  0  0  0  0  0  0  0  0
   -2.4166    0.1258   -1.0960 C   0  0  1  0  0  0  0  0  0  0  0  0
   -2.2823    1.2216   -0.1413 C   0  0  0  0  0  0  0  0  0  0  0  0
   -1.2809    1.1853    0.7815 C   0  0  0  0  0  0  0  0  0  0  0  0
   -0.2765    0.1322    0.9528 C   0  0  0  0  0  0  0  0  0  0  0  0
   -1.4369    2.3681    1.5205 C   0  0  0  0  0  0  0  0  0  0  0  0
   -0.7337    2.9008    2.5866 C   0  0  0  0  0  0  0  0  0  0  0  0
   -1.0774    4.1077    3.1653 C   0  0  0  0  0  0  0  0  0  0  0  0
   -2.1739    4.7923    2.6386 C   0  0  0  0  0  0  0  0  0  0  0  0
   -2.8954    4.2885    1.5768 C   0  0  0  0  0  0  0  0  0  0  0  0
   -2.5135    3.0777    1.0314 C   0  0  0  0  0  0  0  0  0  0  0  0
   -2.9974    2.3406    0.0195 N   0  0  0  0  0  0  0  0  0  0  0  0
   -4.4406   -1.8715    1.1805 C   0  0  0  0  0  0  0  0  0  0  0  0
   -3.9218   -2.7136    2.1715 C   0  0  0  0  0  0  0  0  0  0  0  0
   -2.5564   -3.0203    2.2136 C   0  0  0  0  0  0  0  0  0  0  0  0
   -5.7807   -1.5568    1.1221 O   0  0  0  0  0  0  0  0  0  0  0  0
    0.6091   -0.0308   -1.2597 N   0  0  0  0  0  0  0  0  0  0  0  0
    1.9450    0.2883   -0.9243 C   0  0  0  0  0  0  0  0  0  0  0  0
    2.6731    1.0094   -2.0785 C   0  0  0  0  0  0  0  0  0  0  0  0
    4.0435    1.2565   -1.5350 C   0  0  0  0  0  0  0  0  0  0  0  0
    5.0516    0.3228   -1.7079 C   0  0  0  0  0  0  0  0  0  0  0  0
    6.3286    0.5675   -1.1933 C   0  0  0  0  0  0  0  0  0  0  0  0
    6.5772    1.7601   -0.5046 C   0  0  0  0  0  0  0  0  0  0  0  0
    5.5658    2.6953   -0.3319 C   0  0  0  0  0  0  0  0  0  0  0  0
    4.2889    2.4473   -0.8481 C   0  0  0  0  0  0  0  0  0  0  0  0
    2.3853   -2.8509   -1.7584 H   0  0  0  0  0  0  0  0  0  0  0  0
    1.0851   -1.9255   -2.6193 H   0  0  0  0  0  0  0  0  0  0  0  0
    1.1337   -3.6765   -2.7899 H   0  0  0  0  0  0  0  0  0  0  0  0
   -1.5737   -3.8636   -0.8818 H   0  0  0  0  0  0  0  0  0  0  0  0
   -0.7875   -3.8633   -2.4648 H   0  0  0  0  0  0  0  0  0  0  0  0
   -0.9128   -1.5660   -2.7975 H   0  0  0  0  0  0  0  0  0  0  0  0
   -2.5911   -2.0885   -2.2636 H   0  0  0  0  0  0  0  0  0  0  0  0
    1.5048   -1.9361    0.3452 H   0  0  0  0  0  0  0  0  0  0  0  0
    0.2193   -2.4248    2.2157 H   0  0  0  0  0  0  0  0  0  0  0  0
   -0.0523   -3.8263    1.1907 H   0  0  0  0  0  0  0  0  0  0  0  0
   -2.4115    0.4182   -2.1586 H   0  0  0  0  0  0  0  0  0  0  0  0
   -0.5791   -0.4281    1.8775 H   0  0  0  0  0  0  0  0  0  0  0  0
    0.6731    0.6245    1.2569 H   0  0  0  0  0  0  0  0  0  0  0  0
    0.1081    2.3694    2.9866 H   0  0  0  0  0  0  0  0  0  0  0  0
   -0.5324    4.5367    4.0037 H   0  0  0  0  0  0  0  0  0  0  0  0
   -2.4954    5.7499    3.0515 H   0  0  0  0  0  0  0  0  0  0  0  0
   -3.7538    4.7961    1.1432 H   0  0  0  0  0  0  0  0  0  0  0  0
   -3.8322    2.6363   -0.5505 H   0  0  0  0  0  0  0  0  0  0  0  0
   -4.5779   -3.1370    2.9187 H   0  0  0  0  0  0  0  0  0  0  0  0
   -2.1407   -3.6683    2.9726 H   0  0  0  0  0  0  0  0  0  0  0  0
   -6.2584   -1.3336    2.0011 H   0  0  0  0  0  0  0  0  0  0  0  0
    0.1015    0.8666   -1.4264 H   0  0  0  0  0  0  0  0  0  0  0  0
    2.5978   -0.6134   -0.7608 H   0  0  0  0  0  0  0  0  0  0  0  0
    2.1240    0.9238   -0.0582 H   0  0  0  0  0  0  0  0  0  0  0  0
    2.8050    0.3060   -2.9193 H   0  0  0  0  0  0  0  0  0  0  0  0
    2.1969    1.9558   -2.3298 H   0  0  0  0  0  0  0  0  0  0  0  0
    4.8236   -0.5966   -2.2500 H   0  0  0  0  0  0  0  0  0  0  0  0
    7.0978   -0.1725   -1.3393 H   0  0  0  0  0  0  0  0  0  0  0  0
    7.5789    1.9433   -0.1054 H   0  0  0  0  0  0  0  0  0  0  0  0
    5.7484    3.6306    0.2045 H   0  0  0  0  0  0  0  0  0  0  0  0
    3.4982    3.1791   -0.7125 H   0  0  0  0  0  0  0  0  0  0  0  0
  1  2  1  0
  2  3  1  0
  3  4  1  0
  5  4  1  6
  5  6  1  0
  6  7  1  0
  7  8  1  0
  8  9  1  0
  9 10  2  0
 10 11  1  0
 11 12  1  0
 12 13  1  0
 13 14  1  0
 14 15  2  0
 15 16  1  0
 15 17  1  0
 17 18  2  0
 18 19  1  0
 19 20  2  0
 20 21  1  0
 21 22  2  0
 22 23  1  0
 11 24  2  0
 24 25  1  0
 25 26  2  0
 24 27  1  0
  6 28  1  6
 28 29  1  0
 29 30  1  0
 30 31  1  0
 31 32  2  0
 32 33  1  0
 33 34  2  0
 34 35  1  0
 35 36  2  0
  7  2  1  0
 26  9  1  0
 36 31  1  0
 10  5  1  0
 23 14  1  0
 13  5  1  0
 22 17  1  0
 16  6  1  0
  1 37  1  0
  1 38  1  0
  1 39  1  0
  3 40  1  0
  3 41  1  0
  4 42  1  0
  4 43  1  0
  7 44  1  0
  8 45  1  0
  8 46  1  0
 13 47  1  6
 16 48  1  0
 16 49  1  0
 18 50  1  0
 19 51  1  0
 20 52  1  0
 21 53  1  0
 23 54  1  0
 25 55  1  0
 26 56  1  0
 27 57  1  0
 28 58  1  0
 29 59  1  0
 29 60  1  0
 30 61  1  0
 30 62  1  0
 32 63  1  0
 33 64  1  0
 34 65  1  0
 35 66  1  0
 36 67  1  0
M  END
>  <Ligand ID>  (1) 
LIG0004609

>  <Ligand>  (1) 
CHEMBL2113382

>  <SMILES>  (1) 
CN1CC[C@]23[C@@]4(C1Cc1c2c(O[C@H]3c2c(C4)c3ccccc3[nH]2)c(cc1)O)NCCc1ccccc1

>  <CID>  (1) 
10435156.0

>  <ChEMBL ID>  (1) 
nan

>  <InChiKey>  (1) 
ORZIUHFLZJAQAE-XJHIRHBFSA-N

>  <InChi>  (1) 
InChI=1S/C31H31N3O2/c1-34-16-14-30-26-20-11-12-24(35)28(26)36-29(30)27-22(21-9-5-6-10-23(21)33-27)18-31(30,25(34)17-20)32-15-13-19-7-3-2-4-8-19/h2-12,25,29,32-33,35H,13-18H2,1H3/t25?,29-,30-,31+/m0/s1

>  <IUPAC Name>  (1) 
(1R,2S,13R)-22-methyl-2-(2-phenylethylamino)-14-oxa-11,22-diazaheptacyclo[13.9.1.01,13.02,21.04,12.05,10.019,25]pentacosa-4(12),5,7,9,15,17,19(25)-heptaen-16-ol

$$$$
