
     RDKit          3D

102106  0  0  0  0  0  0  0  0999 V2000
    1.9737    5.8634   -2.7484 N   0  0  0  0  0  0  0  0  0  0  0  0
    1.7320    5.0643   -3.9121 C   0  0  0  0  0  0  0  0  0  0  0  0
    2.3934    3.9792   -4.1576 N   0  0  0  0  0  0  0  0  0  0  0  0
    3.4209    3.5099   -3.2651 C   0  0  0  0  0  0  0  0  0  0  0  0
    2.8938    2.7846   -2.0502 C   0  0  0  0  0  0  0  0  0  0  0  0
    2.0990    1.5631   -2.4358 C   0  0  0  0  0  0  0  0  0  0  0  0
    1.5650    0.8023   -1.2658 C   0  0  1  0  0  0  0  0  0  0  0  0
    2.6568    0.3163   -0.3660 C   0  0  0  0  0  0  0  0  0  0  0  0
    2.6305    0.5195    0.8731 O   0  0  0  0  0  0  0  0  0  0  0  0
    3.7693   -0.4041   -0.8991 N   0  0  0  0  0  0  0  0  0  0  0  0
    4.8431   -0.8975    0.0047 C   0  0  2  0  0  0  0  0  0  0  0  0
    6.1001   -0.2609   -0.3346 C   0  0  0  0  0  0  0  0  0  0  0  0
    7.1775   -0.3459    0.3243 O   0  0  0  0  0  0  0  0  0  0  0  0
    6.1845    0.5521   -1.5187 N   0  0  0  0  0  0  0  0  0  0  0  0
    4.8151   -2.3768   -0.0837 C   0  0  0  0  0  0  0  0  0  0  0  0
    5.8089   -3.0394    0.7392 C   0  0  0  0  0  0  0  0  0  0  0  0
    5.5586   -3.4830    2.0355 C   0  0  0  0  0  0  0  0  0  0  0  0
    6.6648   -4.0321    2.5620 N   0  0  0  0  0  0  0  0  0  0  0  0
    7.6483   -3.9631    1.6393 C   0  0  0  0  0  0  0  0  0  0  0  0
    7.1385   -3.3609    0.5265 C   0  0  0  0  0  0  0  0  0  0  0  0
    7.9745   -3.2031   -0.5632 C   0  0  0  0  0  0  0  0  0  0  0  0
    9.2723   -3.6510   -0.4884 C   0  0  0  0  0  0  0  0  0  0  0  0
    9.7933   -4.2637    0.6457 C   0  0  0  0  0  0  0  0  0  0  0  0
    8.9598   -4.4210    1.7302 C   0  0  0  0  0  0  0  0  0  0  0  0
    0.5350    1.5154   -0.5417 N   0  0  0  0  0  0  0  0  0  0  0  0
   -0.6090    0.8122   -0.1078 C   0  0  0  0  0  0  0  0  0  0  0  0
   -0.6332   -0.4410   -0.3856 O   0  0  0  0  0  0  0  0  0  0  0  0
   -1.7595    1.3440    0.6152 C   0  0  1  0  0  0  0  0  0  0  0  0
   -2.7053    0.3182    1.0036 N   0  0  0  0  0  0  0  0  0  0  0  0
   -4.0700    0.2923    0.6800 C   0  0  0  0  0  0  0  0  0  0  0  0
   -4.5256    1.2469   -0.0121 O   0  0  0  0  0  0  0  0  0  0  0  0
   -4.8869   -0.8290    1.1612 C   0  0  1  0  0  0  0  0  0  0  0  0
   -6.3185   -0.6438    0.8524 N   0  0  0  0  0  0  0  0  0  0  0  0
   -7.2657   -0.7427    1.9155 C   0  0  0  0  0  0  0  0  0  0  0  0
   -6.8597   -0.9812    3.0824 O   0  0  0  0  0  0  0  0  0  0  0  0
   -8.6962   -0.5787    1.7014 C   0  0  0  0  0  0  0  0  0  0  0  0
   -9.2570   -0.3034    0.4681 C   0  0  0  0  0  0  0  0  0  0  0  0
  -10.6390   -0.1670    0.3427 C   0  0  0  0  0  0  0  0  0  0  0  0
  -11.4760   -0.2918    1.3842 N   0  0  0  0  0  0  0  0  0  0  0  0
  -10.9510   -0.5592    2.5921 C   0  0  0  0  0  0  0  0  0  0  0  0
   -9.5843   -0.7027    2.7608 C   0  0  0  0  0  0  0  0  0  0  0  0
   -4.5417   -2.1355    0.4506 C   0  0  0  0  0  0  0  0  0  0  0  0
   -4.7886   -2.0380   -1.0042 C   0  0  0  0  0  0  0  0  0  0  0  0
   -6.0464   -2.3902   -1.4848 C   0  0  0  0  0  0  0  0  0  0  0  0
   -6.3822   -2.3379   -2.8146 C   0  0  0  0  0  0  0  0  0  0  0  0
   -5.4278   -1.9138   -3.7400 C   0  0  0  0  0  0  0  0  0  0  0  0
   -4.1675   -1.5573   -3.2883 C   0  0  0  0  0  0  0  0  0  0  0  0
   -3.8662   -1.6239   -1.9315 C   0  0  0  0  0  0  0  0  0  0  0  0
   -5.7763   -1.8193   -5.4546 Cl  0  0  0  0  0  0  0  0  0  0  0  0
   -1.4615    2.3136    1.6885 C   0  0  0  0  0  0  0  0  0  0  0  0
   -0.6265    1.9181    2.8003 C   0  0  0  0  0  0  0  0  0  0  0  0
   -1.0846    1.2660    3.9312 C   0  0  0  0  0  0  0  0  0  0  0  0
   -0.2599    0.9321    4.9902 C   0  0  0  0  0  0  0  0  0  0  0  0
    1.1001    1.2414    4.9721 C   0  0  0  0  0  0  0  0  0  0  0  0
    1.5609    1.8857    3.8589 C   0  0  0  0  0  0  0  0  0  0  0  0
    0.7419    2.2202    2.8008 C   0  0  0  0  0  0  0  0  0  0  0  0
    0.7349    5.4595   -4.8498 N   0  0  0  0  0  0  0  0  0  0  0  0
    2.9365    6.0805   -2.4536 H   0  0  0  0  0  0  0  0  0  0  0  0
    1.1530    6.2300   -2.1928 H   0  0  0  0  0  0  0  0  0  0  0  0
    4.1111    2.8312   -3.8429 H   0  0  0  0  0  0  0  0  0  0  0  0
    3.9877    4.4055   -2.9365 H   0  0  0  0  0  0  0  0  0  0  0  0
    2.2442    3.5177   -1.4994 H   0  0  0  0  0  0  0  0  0  0  0  0
    3.7179    2.5651   -1.3571 H   0  0  0  0  0  0  0  0  0  0  0  0
    1.2952    1.9292   -3.1140 H   0  0  0  0  0  0  0  0  0  0  0  0
    2.7594    0.8717   -3.0044 H   0  0  0  0  0  0  0  0  0  0  0  0
    1.0834   -0.1441   -1.6790 H   0  0  0  0  0  0  0  0  0  0  0  0
    3.8569   -0.6015   -1.9417 H   0  0  0  0  0  0  0  0  0  0  0  0
    4.5269   -0.5680    1.0423 H   0  0  0  0  0  0  0  0  0  0  0  0
    6.0429    0.1760   -2.4750 H   0  0  0  0  0  0  0  0  0  0  0  0
    6.3997    1.5742   -1.4126 H   0  0  0  0  0  0  0  0  0  0  0  0
    3.7692   -2.7206    0.1783 H   0  0  0  0  0  0  0  0  0  0  0  0
    4.9338   -2.6494   -1.1789 H   0  0  0  0  0  0  0  0  0  0  0  0
    4.6003   -3.4028    2.5645 H   0  0  0  0  0  0  0  0  0  0  0  0
    6.7185   -4.4325    3.5208 H   0  0  0  0  0  0  0  0  0  0  0  0
    7.5423   -2.7244   -1.4291 H   0  0  0  0  0  0  0  0  0  0  0  0
    9.9258   -3.5287   -1.3384 H   0  0  0  0  0  0  0  0  0  0  0  0
   10.8161   -4.6160    0.7059 H   0  0  0  0  0  0  0  0  0  0  0  0
    9.2841   -4.8914    2.6609 H   0  0  0  0  0  0  0  0  0  0  0  0
    0.5825    2.5317   -0.3188 H   0  0  0  0  0  0  0  0  0  0  0  0
   -2.3531    1.9523   -0.1533 H   0  0  0  0  0  0  0  0  0  0  0  0
   -2.2972   -0.4723    1.5865 H   0  0  0  0  0  0  0  0  0  0  0  0
   -4.8084   -0.9387    2.2488 H   0  0  0  0  0  0  0  0  0  0  0  0
   -6.6535   -0.4444   -0.1071 H   0  0  0  0  0  0  0  0  0  0  0  0
   -8.6369   -0.1945   -0.3899 H   0  0  0  0  0  0  0  0  0  0  0  0
  -11.0721    0.0519   -0.6442 H   0  0  0  0  0  0  0  0  0  0  0  0
  -11.5489   -0.6791    3.4929 H   0  0  0  0  0  0  0  0  0  0  0  0
   -9.1578   -0.9191    3.7402 H   0  0  0  0  0  0  0  0  0  0  0  0
   -3.4645   -2.3606    0.6978 H   0  0  0  0  0  0  0  0  0  0  0  0
   -5.1257   -2.9796    0.8676 H   0  0  0  0  0  0  0  0  0  0  0  0
   -6.8401   -2.7332   -0.8058 H   0  0  0  0  0  0  0  0  0  0  0  0
   -7.3551   -2.6107   -3.1983 H   0  0  0  0  0  0  0  0  0  0  0  0
   -3.4064   -1.2243   -3.9733 H   0  0  0  0  0  0  0  0  0  0  0  0
   -2.8910   -1.3453   -1.6179 H   0  0  0  0  0  0  0  0  0  0  0  0
   -2.4034    2.7438    2.1013 H   0  0  0  0  0  0  0  0  0  0  0  0
   -0.9606    3.1945    1.1941 H   0  0  0  0  0  0  0  0  0  0  0  0
   -2.1244    0.9954    4.0124 H   0  0  0  0  0  0  0  0  0  0  0  0
   -0.6244    0.4236    5.8662 H   0  0  0  0  0  0  0  0  0  0  0  0
    1.7744    1.0078    5.7593 H   0  0  0  0  0  0  0  0  0  0  0  0
    2.6214    2.1375    3.8264 H   0  0  0  0  0  0  0  0  0  0  0  0
    1.2165    2.7296    1.9728 H   0  0  0  0  0  0  0  0  0  0  0  0
    0.7392    6.4504   -5.1767 H   0  0  0  0  0  0  0  0  0  0  0  0
    0.0042    4.8206   -5.2271 H   0  0  0  0  0  0  0  0  0  0  0  0
  1  2  1  0
  2  3  2  3
  3  4  1  0
  4  5  1  0
  5  6  1  0
  6  7  1  0
  7  8  1  0
  8  9  2  0
  8 10  1  0
 10 11  1  0
 11 12  1  0
 12 13  2  0
 12 14  1  0
 11 15  1  0
 15 16  1  0
 16 17  2  0
 17 18  1  0
 18 19  1  0
 19 20  2  0
 20 21  1  0
 21 22  2  0
 22 23  1  0
 23 24  2  0
  7 25  1  0
 25 26  1  0
 26 27  2  0
 26 28  1  0
 28 29  1  0
 29 30  1  0
 30 31  2  0
 30 32  1  0
 32 33  1  0
 33 34  1  0
 34 35  2  0
 34 36  1  0
 36 37  2  0
 37 38  1  0
 38 39  2  0
 39 40  1  0
 40 41  2  0
 32 42  1  0
 42 43  1  0
 43 44  2  0
 44 45  1  0
 45 46  2  0
 46 47  1  0
 47 48  2  0
 46 49  1  0
 28 50  1  0
 50 51  1  0
 51 52  2  0
 52 53  1  0
 53 54  2  0
 54 55  1  0
 55 56  2  0
  2 57  1  0
 20 16  1  0
 41 36  1  0
 48 43  1  0
 56 51  1  0
 24 19  1  0
  1 58  1  0
  1 59  1  0
  4 60  1  0
  4 61  1  0
  5 62  1  0
  5 63  1  0
  6 64  1  0
  6 65  1  0
  7 66  1  6
 10 67  1  0
 11 68  1  1
 14 69  1  0
 14 70  1  0
 15 71  1  0
 15 72  1  0
 17 73  1  0
 18 74  1  0
 21 75  1  0
 22 76  1  0
 23 77  1  0
 24 78  1  0
 25 79  1  0
 28 80  1  6
 29 81  1  0
 32 82  1  1
 33 83  1  0
 37 84  1  0
 38 85  1  0
 40 86  1  0
 41 87  1  0
 42 88  1  0
 42 89  1  0
 44 90  1  0
 45 91  1  0
 47 92  1  0
 48 93  1  0
 50 94  1  0
 50 95  1  0
 52 96  1  0
 53 97  1  0
 54 98  1  0
 55 99  1  0
 56100  1  0
 57101  1  0
 57102  1  0
M  END
>  <Ligand ID>  (1) 
LIG0002622

>  <Ligand>  (1) 
CHEMBL184466

>  <SMILES>  (1) 
NC(=NCCC[C@@H](C(=O)N[C@H](C(=O)N)Cc1c[nH]c2c1cccc2)NC(=O)[C@@H](NC(=O)[C@@H](NC(=O)c1ccncc1)Cc1ccc(cc1)Cl)Cc1ccccc1)N

>  <CID>  (1) 
44394692.0

>  <ChEMBL ID>  (1) 
nan

>  <InChiKey>  (1) 
HRTASKSWYMGUEF-BBACVFHCSA-N

>  <InChi>  (1) 
InChI=1S/C41H45ClN10O5/c42-29-14-12-26(13-15-29)22-34(51-37(54)27-16-19-46-20-17-27)40(57)52-35(21-25-7-2-1-3-8-25)39(56)49-32(11-6-18-47-41(44)45)38(55)50-33(36(43)53)23-28-24-48-31-10-5-4-9-30(28)31/h1-5,7-10,12-17,19-20,24,32-35,48H,6,11,18,21-23H2,(H2,43,53)(H,49,56)(H,50,55)(H,51,54)(H,52,57)(H4,44,45,47)/t32-,33-,34-,35-/m0/s1

>  <IUPAC Name>  (1) 
N-[(2S)-1-[[(2S)-1-[[(2S)-1-[[(2S)-1-amino-3-(1H-indol-3-yl)-1-oxopropan-2-yl]amino]-5-(diaminomethylideneamino)-1-oxopentan-2-yl]amino]-1-oxo-3-phenylpropan-2-yl]amino]-3-(4-chlorophenyl)-1-oxopropan-2-yl]pyridine-4-carboxamide

$$$$
