
     RDKit          3D

 49 51  0  0  0  0  0  0  0  0999 V2000
    4.7909    2.9618   -0.1279 C   0  0  0  0  0  0  0  0  0  0  0  0
    3.6541    2.6781    0.6741 O   0  0  0  0  0  0  0  0  0  0  0  0
    2.9211    1.5190    0.5476 C   0  0  0  0  0  0  0  0  0  0  0  0
    3.2635    0.5567   -0.3850 C   0  0  0  0  0  0  0  0  0  0  0  0
    2.5023   -0.5871   -0.4769 C   0  0  0  0  0  0  0  0  0  0  0  0
    1.3961   -0.7660    0.3676 C   0  0  0  0  0  0  0  0  0  0  0  0
    1.0632    0.2186    1.3066 C   0  0  0  0  0  0  0  0  0  0  0  0
    1.8331    1.3620    1.3907 C   0  0  0  0  0  0  0  0  0  0  0  0
    0.6346   -2.0141    0.2361 C   0  0  0  0  0  0  0  0  0  0  0  0
    1.5528   -3.1277    0.1089 N   0  0  0  0  0  0  0  0  0  0  0  0
    0.9661   -4.4170    0.2715 C   0  0  0  0  0  0  0  0  0  0  0  0
    2.7022   -3.0052    0.9449 C   0  0  0  0  0  0  0  0  0  0  0  0
   -0.4614   -2.0328   -0.7510 C   0  0  0  0  0  0  0  0  0  0  0  0
   -1.5318   -1.0511   -0.5162 N   0  0  0  0  0  0  0  0  0  0  0  0
   -1.3847    0.2941   -0.9340 C   0  0  0  0  0  0  0  0  0  0  0  0
   -0.2727    0.5716   -1.6188 N   0  0  0  0  0  0  0  0  0  0  0  0
    0.0220    1.7326   -2.1334 C   0  0  0  0  0  0  0  0  0  0  0  0
   -0.8255    2.7431   -1.9859 N   0  0  0  0  0  0  0  0  0  0  0  0
   -2.0210    2.4990   -1.2657 C   0  0  0  0  0  0  0  0  0  0  0  0
   -2.3665    1.2872   -0.7076 C   0  0  0  0  0  0  0  0  0  0  0  0
   -3.5455    1.2566   -0.0573 C   0  0  0  0  0  0  0  0  0  0  0  0
   -4.1526    0.0578    0.6636 C   0  0  0  0  0  0  0  0  0  0  0  0
   -4.2814    2.4435   -0.0225 C   0  0  0  0  0  0  0  0  0  0  0  0
   -3.3611    3.6769   -0.9002 S   0  0  0  0  0  0  0  0  0  0  0  0
   -5.5995    2.7284    0.6027 C   0  0  0  0  0  0  0  0  0  0  0  0
    5.3504    3.8088    0.2970 H   0  0  0  0  0  0  0  0  0  0  0  0
    5.4950    2.0939   -0.1387 H   0  0  0  0  0  0  0  0  0  0  0  0
    4.5334    3.1758   -1.1640 H   0  0  0  0  0  0  0  0  0  0  0  0
    4.1128    0.6727   -1.0474 H   0  0  0  0  0  0  0  0  0  0  0  0
    2.7618   -1.3320   -1.1940 H   0  0  0  0  0  0  0  0  0  0  0  0
    0.1965    0.0596    1.9558 H   0  0  0  0  0  0  0  0  0  0  0  0
    1.5822    2.1296    2.1152 H   0  0  0  0  0  0  0  0  0  0  0  0
    0.1589   -2.1654    1.2623 H   0  0  0  0  0  0  0  0  0  0  0  0
    1.3096   -4.8364    1.2399 H   0  0  0  0  0  0  0  0  0  0  0  0
    1.3173   -5.1576   -0.4974 H   0  0  0  0  0  0  0  0  0  0  0  0
   -0.1482   -4.4252    0.3441 H   0  0  0  0  0  0  0  0  0  0  0  0
    2.6533   -3.7795    1.7387 H   0  0  0  0  0  0  0  0  0  0  0  0
    3.6471   -3.2461    0.3768 H   0  0  0  0  0  0  0  0  0  0  0  0
    2.8009   -2.0441    1.4880 H   0  0  0  0  0  0  0  0  0  0  0  0
   -0.9444   -3.0125   -0.8883 H   0  0  0  0  0  0  0  0  0  0  0  0
   -0.1047   -1.7644   -1.7962 H   0  0  0  0  0  0  0  0  0  0  0  0
   -2.3524   -1.4630   -0.0400 H   0  0  0  0  0  0  0  0  0  0  0  0
    0.9273    1.8976   -2.6720 H   0  0  0  0  0  0  0  0  0  0  0  0
   -3.4866   -0.3515    1.4114 H   0  0  0  0  0  0  0  0  0  0  0  0
   -5.1102    0.3702    1.1585 H   0  0  0  0  0  0  0  0  0  0  0  0
   -4.3858   -0.6622   -0.1317 H   0  0  0  0  0  0  0  0  0  0  0  0
   -6.0007    3.6482    0.1782 H   0  0  0  0  0  0  0  0  0  0  0  0
   -6.3116    1.8800    0.5321 H   0  0  0  0  0  0  0  0  0  0  0  0
   -5.4996    2.9180    1.6997 H   0  0  0  0  0  0  0  0  0  0  0  0
  1  2  1  0
  2  3  1  0
  3  4  2  0
  4  5  1  0
  5  6  2  0
  6  7  1  0
  7  8  2  0
  6  9  1  0
  9 10  1  0
 10 11  1  0
 10 12  1  0
  9 13  1  0
 13 14  1  0
 14 15  1  0
 15 16  2  0
 16 17  1  0
 17 18  2  0
 18 19  1  0
 19 20  2  0
 20 21  1  0
 21 22  1  0
 21 23  2  0
 23 24  1  0
 23 25  1  0
  8  3  1  0
 20 15  1  0
 24 19  1  0
  1 26  1  0
  1 27  1  0
  1 28  1  0
  4 29  1  0
  5 30  1  0
  7 31  1  0
  8 32  1  0
  9 33  1  0
 11 34  1  0
 11 35  1  0
 11 36  1  0
 12 37  1  0
 12 38  1  0
 12 39  1  0
 13 40  1  0
 13 41  1  0
 14 42  1  0
 17 43  1  0
 22 44  1  0
 22 45  1  0
 22 46  1  0
 25 47  1  0
 25 48  1  0
 25 49  1  0
M  END
>  <Ligand ID>  (1) 
LIG0003686

>  <Ligand>  (1) 
MLS001171549

>  <SMILES>  (1) 
COc1ccc(cc1)C(N(C)C)CNc1ncnc2c1c(C)c(s2)C

>  <CID>  (1) 
4796915.0

>  <ChEMBL ID>  (1) 
nan

>  <InChiKey>  (1) 
HGLOPJZRUUMYDY-UHFFFAOYSA-N

>  <InChi>  (1) 
InChI=1S/C19H24N4OS/c1-12-13(2)25-19-17(12)18(21-11-22-19)20-10-16(23(3)4)14-6-8-15(24-5)9-7-14/h6-9,11,16H,10H2,1-5H3,(H,20,21,22)

>  <IUPAC Name>  (1) 
N'-(5,6-dimethylthieno[2,3-d]pyrimidin-4-yl)-1-(4-methoxyphenyl)-N,N-dimethylethane-1,2-diamine

$$$$
