
     RDKit          3D

 47 50  0  0  0  0  0  0  0  0999 V2000
    0.2107   -1.2403    2.1520 O   0  0  0  0  0  0  0  0  0  0  0  0
    0.0980   -0.4658    1.1371 C   0  0  0  0  0  0  0  0  0  0  0  0
   -1.1291   -0.6594    0.3948 C   0  0  0  0  0  0  0  0  0  0  0  0
   -2.2821   -0.8085    1.3956 C   0  0  0  0  0  0  0  0  0  0  0  0
   -3.5596   -1.0098    0.6362 C   0  0  0  0  0  0  0  0  0  0  0  0
   -4.3572    0.0380    0.2395 C   0  0  0  0  0  0  0  0  0  0  0  0
   -5.5284   -0.1772   -0.4587 C   0  0  0  0  0  0  0  0  0  0  0  0
   -5.9449   -1.4511   -0.7859 C   0  0  0  0  0  0  0  0  0  0  0  0
   -5.1624   -2.5129   -0.3989 C   0  0  0  0  0  0  0  0  0  0  0  0
   -3.9950   -2.2900    0.2976 C   0  0  0  0  0  0  0  0  0  0  0  0
   -1.5231    0.3344   -0.5364 N   0  0  0  0  0  0  0  0  0  0  0  0
   -1.1590    1.6881   -0.7281 C   0  0  0  0  0  0  0  0  0  0  0  0
   -1.9830    2.4577   -1.2672 O   0  0  0  0  0  0  0  0  0  0  0  0
    0.1207    2.2801   -0.3443 C   0  0  0  0  0  0  0  0  0  0  0  0
    1.1385    1.7066    0.4009 C   0  0  0  0  0  0  0  0  0  0  0  0
    1.2444    0.4080    1.0023 N   0  0  0  0  0  0  0  0  0  0  0  0
    2.5076   -0.0495    1.4836 C   0  0  0  0  0  0  0  0  0  0  0  0
    3.3272   -0.7890    0.4791 C   0  0  0  0  0  0  0  0  0  0  0  0
    4.2583   -0.1728   -0.3305 C   0  0  0  0  0  0  0  0  0  0  0  0
    5.0116   -0.8763   -1.2705 C   0  0  0  0  0  0  0  0  0  0  0  0
    4.8547   -2.2248   -1.4289 C   0  0  0  0  0  0  0  0  0  0  0  0
    3.9344   -2.8640   -0.6356 C   0  0  0  0  0  0  0  0  0  0  0  0
    3.1922   -2.1680    0.2912 C   0  0  0  0  0  0  0  0  0  0  0  0
    2.2504    2.4820    0.6236 C   0  0  0  0  0  0  0  0  0  0  0  0
    2.3148    3.7433    0.1235 C   0  0  0  0  0  0  0  0  0  0  0  0
    1.3091    4.3310   -0.6217 C   0  0  0  0  0  0  0  0  0  0  0  0
    0.1865    3.5582   -0.8508 C   0  0  0  0  0  0  0  0  0  0  0  0
   -1.0581   -1.6263   -0.1451 H   0  0  0  0  0  0  0  0  0  0  0  0
   -2.0359   -1.7420    1.9512 H   0  0  0  0  0  0  0  0  0  0  0  0
   -2.3641    0.0476    2.0674 H   0  0  0  0  0  0  0  0  0  0  0  0
   -4.0363    1.0316    0.4923 H   0  0  0  0  0  0  0  0  0  0  0  0
   -6.0966    0.7065   -0.7323 H   0  0  0  0  0  0  0  0  0  0  0  0
   -6.8710   -1.5569   -1.3337 H   0  0  0  0  0  0  0  0  0  0  0  0
   -5.4819   -3.5086   -0.6511 H   0  0  0  0  0  0  0  0  0  0  0  0
   -3.3834   -3.1499    0.5981 H   0  0  0  0  0  0  0  0  0  0  0  0
   -2.2463   -0.0165   -1.2377 H   0  0  0  0  0  0  0  0  0  0  0  0
    2.2092   -0.9138    2.1880 H   0  0  0  0  0  0  0  0  0  0  0  0
    3.0636    0.5639    2.1846 H   0  0  0  0  0  0  0  0  0  0  0  0
    4.4601    0.8858   -0.2827 H   0  0  0  0  0  0  0  0  0  0  0  0
    5.7417   -0.3857   -1.9038 H   0  0  0  0  0  0  0  0  0  0  0  0
    5.4315   -2.7745   -2.1513 H   0  0  0  0  0  0  0  0  0  0  0  0
    3.8025   -3.9403   -0.7550 H   0  0  0  0  0  0  0  0  0  0  0  0
    2.4660   -2.6924    0.9125 H   0  0  0  0  0  0  0  0  0  0  0  0
    3.0678    2.1040    1.1851 H   0  0  0  0  0  0  0  0  0  0  0  0
    3.1941    4.3457    0.3042 H   0  0  0  0  0  0  0  0  0  0  0  0
    1.4114    5.3450   -0.9987 H   0  0  0  0  0  0  0  0  0  0  0  0
   -0.6098    4.0087   -1.4346 H   0  0  0  0  0  0  0  0  0  0  0  0
  1  2  2  0
  2  3  1  0
  3  4  1  0
  4  5  1  0
  5  6  2  0
  6  7  1  0
  7  8  2  0
  8  9  1  0
  9 10  2  0
  3 11  1  0
 11 12  1  0
 12 13  2  0
 12 14  1  0
 14 15  2  0
 15 16  1  0
 16 17  1  0
 17 18  1  0
 18 19  2  0
 19 20  1  0
 20 21  2  0
 21 22  1  0
 22 23  2  0
 15 24  1  0
 24 25  2  0
 25 26  1  0
 26 27  2  0
 16  2  1  0
 23 18  1  0
 10  5  1  0
 27 14  1  0
  3 28  1  0
  4 29  1  0
  4 30  1  0
  6 31  1  0
  7 32  1  0
  8 33  1  0
  9 34  1  0
 10 35  1  0
 11 36  1  0
 17 37  1  0
 17 38  1  0
 19 39  1  0
 20 40  1  0
 21 41  1  0
 22 42  1  0
 23 43  1  0
 24 44  1  0
 25 45  1  0
 26 46  1  0
 27 47  1  0
M  END
>  <Ligand ID>  (1) 
LIG0001259

>  <Ligand>  (1) 
CHEMBL406651

>  <SMILES>  (1) 
O=C1C(Cc2ccccc2)NC(=O)c2c(N1Cc1ccccc1)cccc2

>  <CID>  (1) 
44457036.0

>  <ChEMBL ID>  (1) 
nan

>  <InChiKey>  (1) 
NXEAZDQUXPQNGE-UHFFFAOYSA-N

>  <InChi>  (1) 
InChI=1S/C23H20N2O2/c26-22-19-13-7-8-14-21(19)25(16-18-11-5-2-6-12-18)23(27)20(24-22)15-17-9-3-1-4-10-17/h1-14,20H,15-16H2,(H,24,26)

>  <IUPAC Name>  (1) 
1,3-dibenzyl-3,4-dihydro-1,4-benzodiazepine-2,5-dione

$$$$
