
     RDKit          3D

103107  0  0  0  0  0  0  0  0999 V2000
    2.9599   -8.9192   -0.3233 N   0  0  0  0  0  0  0  0  0  0  0  0
    2.0093   -7.8618   -0.3514 C   0  0  0  0  0  0  0  0  0  0  0  0
    2.4008   -6.6792   -0.0876 N   0  0  0  0  0  0  0  0  0  0  0  0
    1.4817   -5.5755   -0.1023 C   0  0  0  0  0  0  0  0  0  0  0  0
    2.1649   -4.4439    0.6665 C   0  0  0  0  0  0  0  0  0  0  0  0
    1.1982   -3.2873    0.6448 C   0  0  0  0  0  0  0  0  0  0  0  0
    1.6816   -2.0805    1.3561 C   0  0  1  0  0  0  0  0  0  0  0  0
    2.9499   -1.5076    0.8192 C   0  0  0  0  0  0  0  0  0  0  0  0
    4.0165   -2.1449    0.6899 O   0  0  0  0  0  0  0  0  0  0  0  0
    2.9188   -0.1306    0.4368 N   0  0  0  0  0  0  0  0  0  0  0  0
    4.1260    0.5388   -0.1012 C   0  0  2  0  0  0  0  0  0  0  0  0
    4.6628    1.4519    0.9073 C   0  0  0  0  0  0  0  0  0  0  0  0
    3.9511    1.6478    1.9499 O   0  0  0  0  0  0  0  0  0  0  0  0
    5.8889    2.1362    0.8531 N   0  0  0  0  0  0  0  0  0  0  0  0
    3.7989    1.1109   -1.4339 C   0  0  0  0  0  0  0  0  0  0  0  0
    4.8729    1.8458   -2.1094 C   0  0  0  0  0  0  0  0  0  0  0  0
    5.7613    1.3086   -3.0380 C   0  0  0  0  0  0  0  0  0  0  0  0
    6.6321    2.2734   -3.4241 N   0  0  0  0  0  0  0  0  0  0  0  0
    6.3527    3.4272   -2.7871 C   0  0  0  0  0  0  0  0  0  0  0  0
    5.2598    3.1731   -1.9666 C   0  0  0  0  0  0  0  0  0  0  0  0
    4.7921    4.2310   -1.2277 C   0  0  0  0  0  0  0  0  0  0  0  0
    5.3258    5.4900   -1.2493 C   0  0  0  0  0  0  0  0  0  0  0  0
    6.4088    5.7460   -2.0596 C   0  0  0  0  0  0  0  0  0  0  0  0
    6.9166    4.6980   -2.8294 C   0  0  0  0  0  0  0  0  0  0  0  0
    0.6384   -1.0645    1.2908 N   0  0  0  0  0  0  0  0  0  0  0  0
    0.2818   -0.2039    2.3377 C   0  0  0  0  0  0  0  0  0  0  0  0
    0.8912   -0.2895    3.4321 O   0  0  0  0  0  0  0  0  0  0  0  0
   -0.8107    0.7735    2.0765 C   0  0  1  0  0  0  0  0  0  0  0  0
   -1.4157    0.5751    0.7866 N   0  0  0  0  0  0  0  0  0  0  0  0
   -1.0993    1.3709   -0.3664 C   0  0  0  0  0  0  0  0  0  0  0  0
   -0.2268    2.2725   -0.1607 O   0  0  0  0  0  0  0  0  0  0  0  0
   -1.7331    1.1493   -1.6887 C   0  0  1  0  0  0  0  0  0  0  0  0
   -2.9158    0.3115   -1.6413 N   0  0  0  0  0  0  0  0  0  0  0  0
   -3.9328    0.6246   -0.7377 C   0  0  0  0  0  0  0  0  0  0  0  0
   -3.7649    1.6474   -0.0052 O   0  0  0  0  0  0  0  0  0  0  0  0
   -5.1789   -0.0990   -0.5421 C   0  0  0  0  0  0  0  0  0  0  0  0
   -5.5345   -1.2521   -1.1776 C   0  0  0  0  0  0  0  0  0  0  0  0
   -4.7216   -1.8447   -2.0752 F   0  0  0  0  0  0  0  0  0  0  0  0
   -6.7471   -1.8804   -0.9366 C   0  0  0  0  0  0  0  0  0  0  0  0
   -7.0850   -3.0424   -1.5871 F   0  0  0  0  0  0  0  0  0  0  0  0
   -7.6664   -1.3743   -0.0382 C   0  0  0  0  0  0  0  0  0  0  0  0
   -7.3219   -0.2101    0.6106 C   0  0  0  0  0  0  0  0  0  0  0  0
   -6.1180    0.4075    0.3671 C   0  0  0  0  0  0  0  0  0  0  0  0
   -5.8793    1.5581    1.0609 F   0  0  0  0  0  0  0  0  0  0  0  0
   -8.2058    0.3083    1.4941 F   0  0  0  0  0  0  0  0  0  0  0  0
   -8.8370   -1.9813    0.1943 F   0  0  0  0  0  0  0  0  0  0  0  0
   -1.8072    2.3149   -2.6037 C   0  0  0  0  0  0  0  0  0  0  0  0
   -2.5502    3.4923   -2.1914 C   0  0  0  0  0  0  0  0  0  0  0  0
   -2.0457    4.5767   -1.5081 C   0  0  0  0  0  0  0  0  0  0  0  0
   -2.8153    5.6697   -1.1656 C   0  0  0  0  0  0  0  0  0  0  0  0
   -4.1426    5.7005   -1.5102 C   0  0  0  0  0  0  0  0  0  0  0  0
   -4.6960    4.6376   -2.1962 C   0  0  0  0  0  0  0  0  0  0  0  0
   -3.9040    3.5595   -2.5248 C   0  0  0  0  0  0  0  0  0  0  0  0
   -5.2113    7.0366   -1.1255 Cl  0  0  0  0  0  0  0  0  0  0  0  0
   -1.7070    0.8865    3.2349 C   0  0  0  0  0  0  0  0  0  0  0  0
   -2.4183   -0.2996    3.6885 C   0  0  0  0  0  0  0  0  0  0  0  0
   -3.6555   -0.5766    3.1128 C   0  0  0  0  0  0  0  0  0  0  0  0
   -4.4247   -1.6580    3.4697 C   0  0  0  0  0  0  0  0  0  0  0  0
   -3.9460   -2.5184    4.4531 C   0  0  0  0  0  0  0  0  0  0  0  0
   -2.7289   -2.2823    5.0477 C   0  0  0  0  0  0  0  0  0  0  0  0
   -1.9943   -1.1828    4.6547 C   0  0  0  0  0  0  0  0  0  0  0  0
    0.6641   -8.2114   -0.6785 N   0  0  0  0  0  0  0  0  0  0  0  0
    2.8030   -9.8370    0.1431 H   0  0  0  0  0  0  0  0  0  0  0  0
    3.9052   -8.8169   -0.7941 H   0  0  0  0  0  0  0  0  0  0  0  0
    0.4983   -5.7823    0.3384 H   0  0  0  0  0  0  0  0  0  0  0  0
    1.3077   -5.1980   -1.1492 H   0  0  0  0  0  0  0  0  0  0  0  0
    2.3550   -4.7480    1.6935 H   0  0  0  0  0  0  0  0  0  0  0  0
    3.0703   -4.1441    0.1099 H   0  0  0  0  0  0  0  0  0  0  0  0
    0.8391   -3.0732   -0.3883 H   0  0  0  0  0  0  0  0  0  0  0  0
    0.2845   -3.6467    1.2024 H   0  0  0  0  0  0  0  0  0  0  0  0
    1.9167   -2.3285    2.4226 H   0  0  0  0  0  0  0  0  0  0  0  0
    2.0653    0.4284    0.5234 H   0  0  0  0  0  0  0  0  0  0  0  0
    4.9082   -0.2747   -0.2163 H   0  0  0  0  0  0  0  0  0  0  0  0
    5.9469    3.1221    1.2213 H   0  0  0  0  0  0  0  0  0  0  0  0
    6.7388    1.6952    0.4592 H   0  0  0  0  0  0  0  0  0  0  0  0
    2.9164    1.8107   -1.2576 H   0  0  0  0  0  0  0  0  0  0  0  0
    3.3725    0.3336   -2.1315 H   0  0  0  0  0  0  0  0  0  0  0  0
    5.7575    0.2721   -3.4001 H   0  0  0  0  0  0  0  0  0  0  0  0
    7.4250    2.2099   -4.1051 H   0  0  0  0  0  0  0  0  0  0  0  0
    3.9411    4.0402   -0.5881 H   0  0  0  0  0  0  0  0  0  0  0  0
    4.9529    6.3282   -0.6601 H   0  0  0  0  0  0  0  0  0  0  0  0
    6.8372    6.7370   -2.0842 H   0  0  0  0  0  0  0  0  0  0  0  0
    7.7667    4.9259   -3.4565 H   0  0  0  0  0  0  0  0  0  0  0  0
    0.1365   -1.0103    0.3576 H   0  0  0  0  0  0  0  0  0  0  0  0
   -0.2455    1.7538    1.9738 H   0  0  0  0  0  0  0  0  0  0  0  0
   -2.1104   -0.2304    0.7281 H   0  0  0  0  0  0  0  0  0  0  0  0
   -0.9736    0.4395   -2.2347 H   0  0  0  0  0  0  0  0  0  0  0  0
   -3.0292   -0.5133   -2.2630 H   0  0  0  0  0  0  0  0  0  0  0  0
   -2.2577    1.9201   -3.5651 H   0  0  0  0  0  0  0  0  0  0  0  0
   -0.7433    2.5681   -2.9061 H   0  0  0  0  0  0  0  0  0  0  0  0
   -1.0086    4.6080   -1.2223 H   0  0  0  0  0  0  0  0  0  0  0  0
   -2.4188    6.5302   -0.6225 H   0  0  0  0  0  0  0  0  0  0  0  0
   -5.7554    4.6175   -2.4933 H   0  0  0  0  0  0  0  0  0  0  0  0
   -4.3589    2.7183   -3.0735 H   0  0  0  0  0  0  0  0  0  0  0  0
   -2.3923    1.7852    3.1327 H   0  0  0  0  0  0  0  0  0  0  0  0
   -1.0552    1.2017    4.1131 H   0  0  0  0  0  0  0  0  0  0  0  0
   -4.0402    0.0831    2.3470 H   0  0  0  0  0  0  0  0  0  0  0  0
   -5.3987   -1.8397    2.9904 H   0  0  0  0  0  0  0  0  0  0  0  0
   -4.5918   -3.3531    4.6978 H   0  0  0  0  0  0  0  0  0  0  0  0
   -2.4136   -2.9853    5.8026 H   0  0  0  0  0  0  0  0  0  0  0  0
   -1.0518   -1.0339    5.1500 H   0  0  0  0  0  0  0  0  0  0  0  0
   -0.0292   -8.1414    0.0992 H   0  0  0  0  0  0  0  0  0  0  0  0
    0.3644   -8.5214   -1.6307 H   0  0  0  0  0  0  0  0  0  0  0  0
  1  2  1  0
  2  3  2  3
  3  4  1  0
  4  5  1  0
  5  6  1  0
  6  7  1  0
  7  8  1  0
  8  9  2  0
  8 10  1  0
 10 11  1  0
 11 12  1  0
 12 13  2  0
 12 14  1  0
 11 15  1  0
 15 16  1  0
 16 17  2  0
 17 18  1  0
 18 19  1  0
 19 20  2  0
 20 21  1  0
 21 22  2  0
 22 23  1  0
 23 24  2  0
  7 25  1  0
 25 26  1  0
 26 27  2  0
 26 28  1  0
 28 29  1  0
 29 30  1  0
 30 31  2  0
 30 32  1  0
 32 33  1  0
 33 34  1  0
 34 35  2  0
 34 36  1  0
 36 37  2  0
 37 38  1  0
 37 39  1  0
 39 40  1  0
 39 41  2  0
 41 42  1  0
 42 43  2  0
 43 44  1  0
 42 45  1  0
 41 46  1  0
 32 47  1  0
 47 48  1  0
 48 49  2  0
 49 50  1  0
 50 51  2  0
 51 52  1  0
 52 53  2  0
 51 54  1  0
 28 55  1  0
 55 56  1  0
 56 57  2  0
 57 58  1  0
 58 59  2  0
 59 60  1  0
 60 61  2  0
  2 62  1  0
 20 16  1  0
 43 36  1  0
 53 48  1  0
 61 56  1  0
 24 19  1  0
  1 63  1  0
  1 64  1  0
  4 65  1  0
  4 66  1  0
  5 67  1  0
  5 68  1  0
  6 69  1  0
  6 70  1  0
  7 71  1  1
 10 72  1  0
 11 73  1  6
 14 74  1  0
 14 75  1  0
 15 76  1  0
 15 77  1  0
 17 78  1  0
 18 79  1  0
 21 80  1  0
 22 81  1  0
 23 82  1  0
 24 83  1  0
 25 84  1  0
 28 85  1  6
 29 86  1  0
 32 87  1  6
 33 88  1  0
 47 89  1  0
 47 90  1  0
 49 91  1  0
 50 92  1  0
 52 93  1  0
 53 94  1  0
 55 95  1  0
 55 96  1  0
 57 97  1  0
 58 98  1  0
 59 99  1  0
 60100  1  0
 61101  1  0
 62102  1  0
 62103  1  0
M  END
>  <Ligand ID>  (1) 
LIG0002618

>  <Ligand>  (1) 
CHEMBL365825

>  <SMILES>  (1) 
NC(=NCCC[C@@H](C(=O)N[C@H](C(=O)N)Cc1c[nH]c2c1cccc2)NC(=O)[C@@H](NC(=O)[C@@H](NC(=O)c1c(F)c(F)c(c(c1F)F)F)Cc1ccc(cc1)Cl)Cc1ccccc1)N

>  <CID>  (1) 
44394093.0

>  <ChEMBL ID>  (1) 
nan

>  <InChiKey>  (1) 
MIBIFNGSEXRTSC-KRCBVYEFSA-N

>  <InChi>  (1) 
InChI=1S/C42H41ClF5N9O5/c43-24-14-12-22(13-15-24)18-30(57-41(62)31-32(44)34(46)36(48)35(47)33(31)45)40(61)56-29(17-21-7-2-1-3-8-21)39(60)54-27(11-6-16-52-42(50)51)38(59)55-28(37(49)58)19-23-20-53-26-10-5-4-9-25(23)26/h1-5,7-10,12-15,20,27-30,53H,6,11,16-19H2,(H2,49,58)(H,54,60)(H,55,59)(H,56,61)(H,57,62)(H4,50,51,52)/t27-,28-,29-,30-/m0/s1

>  <IUPAC Name>  (1) 
N-[(2S)-1-[[(2S)-1-[[(2S)-1-[[(2S)-1-amino-3-(1H-indol-3-yl)-1-oxopropan-2-yl]amino]-5-(diaminomethylideneamino)-1-oxopentan-2-yl]amino]-1-oxo-3-phenylpropan-2-yl]amino]-3-(4-chlorophenyl)-1-oxopropan-2-yl]-2,3,4,5,6-pentafluorobenzamide

$$$$
