
     RDKit          3D

 26 25  0  0  0  0  0  0  0  0999 V2000
   -2.8029    0.7102    0.6709 C   0  0  0  0  0  0  0  0  0  0  0  0
   -2.9394    0.1509   -0.7252 C   0  0  0  0  0  0  0  0  0  0  0  0
   -2.2897   -1.1952   -0.7686 C   0  0  0  0  0  0  0  0  0  0  0  0
   -0.8223   -1.1513   -0.4224 C   0  0  0  0  0  0  0  0  0  0  0  0
   -0.0496   -0.2819   -1.3626 C   0  0  0  0  0  0  0  0  0  0  0  0
    1.3216   -0.1982   -1.0957 O   0  0  0  0  0  0  0  0  0  0  0  0
    1.8840    0.2743    0.0800 C   0  0  0  0  0  0  0  0  0  0  0  0
    1.1364    0.6719    1.0134 O   0  0  0  0  0  0  0  0  0  0  0  0
    3.3670    0.2821    0.1673 C   0  0  0  0  0  0  0  0  0  0  0  0
    3.7902    0.8230    1.5033 C   0  0  0  0  0  0  0  0  0  0  0  0
   -1.7463    1.0109    0.8263 H   0  0  0  0  0  0  0  0  0  0  0  0
   -3.4479    1.6048    0.8257 H   0  0  0  0  0  0  0  0  0  0  0  0
   -3.0972   -0.0963    1.3848 H   0  0  0  0  0  0  0  0  0  0  0  0
   -2.5966    0.8458   -1.4996 H   0  0  0  0  0  0  0  0  0  0  0  0
   -4.0281   -0.0019   -0.9031 H   0  0  0  0  0  0  0  0  0  0  0  0
   -2.8050   -1.8460   -0.0270 H   0  0  0  0  0  0  0  0  0  0  0  0
   -2.3749   -1.6439   -1.7811 H   0  0  0  0  0  0  0  0  0  0  0  0
   -0.7617   -0.7648    0.6290 H   0  0  0  0  0  0  0  0  0  0  0  0
   -0.4451   -2.1967   -0.4152 H   0  0  0  0  0  0  0  0  0  0  0  0
   -0.1450   -0.7430   -2.3768 H   0  0  0  0  0  0  0  0  0  0  0  0
   -0.5623    0.6894   -1.4342 H   0  0  0  0  0  0  0  0  0  0  0  0
    3.8101    0.9678   -0.6082 H   0  0  0  0  0  0  0  0  0  0  0  0
    3.8198   -0.7131   -0.0597 H   0  0  0  0  0  0  0  0  0  0  0  0
    2.9496    1.3417    1.9775 H   0  0  0  0  0  0  0  0  0  0  0  0
    4.1651   -0.0498    2.1074 H   0  0  0  0  0  0  0  0  0  0  0  0
    4.6699    1.5093    1.4255 H   0  0  0  0  0  0  0  0  0  0  0  0
  1  2  1  0
  2  3  1  0
  3  4  1  0
  4  5  1  0
  5  6  1  0
  6  7  1  0
  7  8  2  0
  7  9  1  0
  9 10  1  0
  1 11  1  0
  1 12  1  0
  1 13  1  0
  2 14  1  0
  2 15  1  0
  3 16  1  0
  3 17  1  0
  4 18  1  0
  4 19  1  0
  5 20  1  0
  5 21  1  0
  9 22  1  0
  9 23  1  0
 10 24  1  0
 10 25  1  0
 10 26  1  0
M  END
>  <Ligand ID>  (1) 
LIG0000201

>  <Ligand>  (1) 
Amyl propionate

>  <SMILES>  (1) 
CCCCCOC(=O)CC

>  <CID>  (1) 
12217.0

>  <ChEMBL ID>  (1) 
nan

>  <InChiKey>  (1) 
TWSRVQVEYJNFKQ-UHFFFAOYSA-N

>  <InChi>  (1) 
InChI=1S/C8H16O2/c1-3-5-6-7-10-8(9)4-2/h3-7H2,1-2H3

>  <IUPAC Name>  (1) 
pentyl propanoate

$$$$
