
     RDKit          3D

 16 15  0  0  0  0  0  0  0  0999 V2000
    2.1581    1.0828    0.1064 S   0  0  0  0  0  0  0  0  0  0  0  0
    1.4991   -0.4139   -0.6600 C   0  0  0  0  0  0  0  0  0  0  0  0
    0.2306   -0.8011    0.0341 C   0  0  0  0  0  0  0  0  0  0  0  0
   -0.8395    0.2403   -0.0278 C   0  0  0  0  0  0  0  0  0  0  0  0
   -0.2876    1.7848    0.7453 S   0  0  0  0  0  0  0  0  0  0  0  0
   -2.0471   -0.3019    0.7128 C   0  0  0  0  0  0  0  0  0  0  0  0
    3.5688    0.9128    0.2054 H   0  0  0  0  0  0  0  0  0  0  0  0
    1.3534   -0.2599   -1.7589 H   0  0  0  0  0  0  0  0  0  0  0  0
    2.2081   -1.2712   -0.5379 H   0  0  0  0  0  0  0  0  0  0  0  0
   -0.1894   -1.7537   -0.3533 H   0  0  0  0  0  0  0  0  0  0  0  0
    0.4635   -0.9509    1.1027 H   0  0  0  0  0  0  0  0  0  0  0  0
   -1.1185    0.3812   -1.1056 H   0  0  0  0  0  0  0  0  0  0  0  0
    0.0262    2.7824   -0.2098 H   0  0  0  0  0  0  0  0  0  0  0  0
   -2.9671   -0.2203    0.0852 H   0  0  0  0  0  0  0  0  0  0  0  0
   -1.9413   -1.3999    0.9186 H   0  0  0  0  0  0  0  0  0  0  0  0
   -2.1171    0.1881    1.6885 H   0  0  0  0  0  0  0  0  0  0  0  0
  1  2  1  0
  2  3  1  0
  3  4  1  0
  4  5  1  0
  4  6  1  0
  1  7  1  0
  2  8  1  0
  2  9  1  0
  3 10  1  0
  3 11  1  0
  4 12  1  0
  5 13  1  0
  6 14  1  0
  6 15  1  0
  6 16  1  0
M  END
>  <Ligand ID>  (1) 
LIG0000643

>  <Ligand>  (1) 
1,3-Butanedithiol

>  <SMILES>  (1) 
SCCC(S)C

>  <CID>  (1) 
520119.0

>  <ChEMBL ID>  (1) 
nan

>  <InChiKey>  (1) 
XMEPRJBZFCWFKN-UHFFFAOYSA-N

>  <InChi>  (1) 
InChI=1S/C4H10S2/c1-4(6)2-3-5/h4-6H,2-3H2,1H3

>  <IUPAC Name>  (1) 
butane-1,3-dithiol

$$$$
