
     RDKit          3D

 53 56  0  0  0  0  0  0  0  0999 V2000
   -0.9427    4.2844   -0.0253 C   0  0  0  0  0  0  0  0  0  0  0  0
   -0.3053    3.6361   -1.0623 C   0  0  0  0  0  0  0  0  0  0  0  0
   -0.1504    2.2628   -0.9391 C   0  0  0  0  0  0  0  0  0  0  0  0
   -0.5971    1.5499    0.1473 C   0  0  0  0  0  0  0  0  0  0  0  0
   -1.2116    2.2027    1.1384 N   0  0  0  0  0  0  0  0  0  0  0  0
   -1.3720    3.5328    1.0395 C   0  0  0  0  0  0  0  0  0  0  0  0
   -0.4431    0.0780    0.2951 C   0  0  2  0  0  0  0  0  0  0  0  0
    0.8666   -0.1752    0.9414 C   0  0  0  0  0  0  0  0  0  0  0  0
    2.0876    0.3044    0.2424 C   0  0  0  0  0  0  0  0  0  0  0  0
    2.2784   -0.2713   -1.0728 N   0  0  0  0  0  0  0  0  0  0  0  0
    3.4664    0.2635   -1.6532 C   0  0  0  0  0  0  0  0  0  0  0  0
    4.6236   -0.0201   -0.8602 C   0  0  0  0  0  0  0  0  0  0  0  0
    5.5012   -1.0645   -0.8375 C   0  0  0  0  0  0  0  0  0  0  0  0
    6.5261   -1.0952    0.0091 C   0  0  0  0  0  0  0  0  0  0  0  0
    6.6871   -0.0308    0.8797 C   0  0  0  0  0  0  0  0  0  0  0  0
    5.2789    1.1003    0.4675 S   0  0  0  0  0  0  0  0  0  0  0  0
   -0.6784   -0.5457   -1.0296 C   0  0  0  0  0  0  0  0  0  0  0  0
   -2.0562   -0.1674   -1.5281 C   0  0  0  0  0  0  0  0  0  0  0  0
   -2.9639    0.0103   -0.4947 O   0  0  0  0  0  0  0  0  0  0  0  0
   -2.7648   -0.8294    0.5875 C   0  0  0  0  0  0  0  0  0  0  0  0
   -1.4969   -0.4591    1.2769 C   0  0  0  0  0  0  0  0  0  0  0  0
   -3.9035   -0.6500    1.5487 C   0  0  0  0  0  0  0  0  0  0  0  0
   -4.9084   -1.7336    1.3087 C   0  0  0  0  0  0  0  0  0  0  0  0
   -4.0884   -2.8688    0.7567 C   0  0  0  0  0  0  0  0  0  0  0  0
   -2.8339   -2.2841    0.1953 C   0  0  0  0  0  0  0  0  0  0  0  0
   -1.0811    5.3675   -0.0909 H   0  0  0  0  0  0  0  0  0  0  0  0
    0.0617    4.1703   -1.9392 H   0  0  0  0  0  0  0  0  0  0  0  0
    0.3521    1.7713   -1.7571 H   0  0  0  0  0  0  0  0  0  0  0  0
   -1.8733    4.0587    1.8500 H   0  0  0  0  0  0  0  0  0  0  0  0
    1.0386   -1.2811    1.1111 H   0  0  0  0  0  0  0  0  0  0  0  0
    0.8939    0.2355    1.9718 H   0  0  0  0  0  0  0  0  0  0  0  0
    2.1469    1.3978    0.1062 H   0  0  0  0  0  0  0  0  0  0  0  0
    3.0013    0.0366    0.8132 H   0  0  0  0  0  0  0  0  0  0  0  0
    2.2048   -1.2907   -1.0869 H   0  0  0  0  0  0  0  0  0  0  0  0
    3.6019   -0.1766   -2.6623 H   0  0  0  0  0  0  0  0  0  0  0  0
    3.3806    1.3689   -1.8479 H   0  0  0  0  0  0  0  0  0  0  0  0
    5.3274   -1.9085   -1.5668 H   0  0  0  0  0  0  0  0  0  0  0  0
    7.2600   -1.9274    0.0566 H   0  0  0  0  0  0  0  0  0  0  0  0
    7.4329    0.2059    1.6745 H   0  0  0  0  0  0  0  0  0  0  0  0
   -0.5495   -1.6467   -0.9657 H   0  0  0  0  0  0  0  0  0  0  0  0
    0.0313   -0.2013   -1.7996 H   0  0  0  0  0  0  0  0  0  0  0  0
   -2.4877   -0.9036   -2.2365 H   0  0  0  0  0  0  0  0  0  0  0  0
   -2.0213    0.7950   -2.0836 H   0  0  0  0  0  0  0  0  0  0  0  0
   -1.7003    0.3643    1.9895 H   0  0  0  0  0  0  0  0  0  0  0  0
   -1.0715   -1.3030    1.8483 H   0  0  0  0  0  0  0  0  0  0  0  0
   -3.5604   -0.7383    2.6066 H   0  0  0  0  0  0  0  0  0  0  0  0
   -4.4082    0.3298    1.4624 H   0  0  0  0  0  0  0  0  0  0  0  0
   -5.6620   -1.3597    0.5928 H   0  0  0  0  0  0  0  0  0  0  0  0
   -5.4413   -2.0790    2.2157 H   0  0  0  0  0  0  0  0  0  0  0  0
   -3.8890   -3.6618    1.5258 H   0  0  0  0  0  0  0  0  0  0  0  0
   -4.7305   -3.3796   -0.0130 H   0  0  0  0  0  0  0  0  0  0  0  0
   -1.9779   -2.8720    0.5828 H   0  0  0  0  0  0  0  0  0  0  0  0
   -2.8787   -2.4026   -0.9092 H   0  0  0  0  0  0  0  0  0  0  0  0
  1  2  2  0
  2  3  1  0
  3  4  2  0
  4  5  1  0
  5  6  2  0
  4  7  1  0
  7  8  1  1
  8  9  1  0
  9 10  1  0
 10 11  1  0
 11 12  1  0
 12 13  2  0
 13 14  1  0
 14 15  2  0
 15 16  1  0
  7 17  1  0
 17 18  1  0
 18 19  1  0
 19 20  1  0
 20 21  1  0
 20 22  1  0
 22 23  1  0
 23 24  1  0
 24 25  1  0
  6  1  1  0
 21  7  1  0
 16 12  1  0
 25 20  1  0
  1 26  1  0
  2 27  1  0
  3 28  1  0
  6 29  1  0
  8 30  1  0
  8 31  1  0
  9 32  1  0
  9 33  1  0
 10 34  1  0
 11 35  1  0
 11 36  1  0
 13 37  1  0
 14 38  1  0
 15 39  1  0
 17 40  1  0
 17 41  1  0
 18 42  1  0
 18 43  1  0
 21 44  1  0
 21 45  1  0
 22 46  1  0
 22 47  1  0
 23 48  1  0
 23 49  1  0
 24 50  1  0
 24 51  1  0
 25 52  1  0
 25 53  1  0
M  END
>  <Ligand ID>  (1) 
LIG0003072

>  <Ligand>  (1) 
CHEMBL2443278

>  <SMILES>  (1) 
c1ccc(nc1)[C@]1(CCNCc2cccs2)CCOC2(C1)CCCC2

>  <CID>  (1) 
72712370.0

>  <ChEMBL ID>  (1) 
nan

>  <InChiKey>  (1) 
PJLIHYXPEOMIMJ-HXUWFJFHSA-N

>  <InChi>  (1) 
InChI=1S/C21H28N2OS/c1-4-12-23-19(7-1)20(10-13-22-16-18-6-5-15-25-18)11-14-24-21(17-20)8-2-3-9-21/h1,4-7,12,15,22H,2-3,8-11,13-14,16-17H2/t20-/m1/s1

>  <IUPAC Name>  (1) 
2-[(9R)-9-pyridin-2-yl-6-oxaspiro[4.5]decan-9-yl]-N-(thiophen-2-ylmethyl)ethanamine

$$$$
