
     RDKit          3D

 17 17  0  0  0  0  0  0  0  0999 V2000
   -2.0108    0.5451    0.2082 C   0  0  0  0  0  0  0  0  0  0  0  0
   -0.7254    0.6453   -0.5529 C   0  0  0  0  0  0  0  0  0  0  0  0
   -0.1439    1.9253   -0.4035 O   0  0  0  0  0  0  0  0  0  0  0  0
    1.1370    1.7319    0.0974 C   0  0  0  0  0  0  0  0  0  0  0  0
    1.9177    2.6958    0.3411 O   0  0  0  0  0  0  0  0  0  0  0  0
    1.4041    0.3061    0.2809 C   0  0  0  0  0  0  0  0  0  0  0  0
    0.3007   -0.3162   -0.1056 C   0  0  0  0  0  0  0  0  0  0  0  0
    0.1189   -1.7853   -0.0913 C   0  0  0  0  0  0  0  0  0  0  0  0
    2.5947   -0.2204    0.7663 O   0  0  0  0  0  0  0  0  0  0  0  0
   -2.7793    1.1264   -0.3252 H   0  0  0  0  0  0  0  0  0  0  0  0
   -2.3199   -0.5203    0.2265 H   0  0  0  0  0  0  0  0  0  0  0  0
   -1.8765    0.9907    1.1997 H   0  0  0  0  0  0  0  0  0  0  0  0
   -0.8775    0.4777   -1.6372 H   0  0  0  0  0  0  0  0  0  0  0  0
   -0.3822   -2.1183   -1.0432 H   0  0  0  0  0  0  0  0  0  0  0  0
    1.1023   -2.3280   -0.1212 H   0  0  0  0  0  0  0  0  0  0  0  0
   -0.5020   -2.1211    0.7396 H   0  0  0  0  0  0  0  0  0  0  0  0
    3.0422   -1.0346    0.4204 H   0  0  0  0  0  0  0  0  0  0  0  0
  1  2  1  0
  2  3  1  0
  3  4  1  0
  4  5  2  0
  4  6  1  0
  6  7  2  0
  7  8  1  0
  6  9  1  0
  7  2  1  0
  1 10  1  0
  1 11  1  0
  1 12  1  0
  2 13  1  0
  8 14  1  0
  8 15  1  0
  8 16  1  0
  9 17  1  0
M  END
>  <Ligand ID>  (1) 
LIG0000263

>  <Ligand>  (1) 
Sotolon

>  <SMILES>  (1) 
CC1OC(=O)C(=C1C)O

>  <CID>  (1) 
62835.0

>  <ChEMBL ID>  (1) 
nan

>  <InChiKey>  (1) 
UNYNVICDCJHOPO-UHFFFAOYSA-N

>  <InChi>  (1) 
InChI=1S/C6H8O3/c1-3-4(2)9-6(8)5(3)7/h4,7H,1-2H3

>  <IUPAC Name>  (1) 
4-hydroxy-2,3-dimethyl-2H-furan-5-one

$$$$
