
     RDKit          3D

 35 37  0  0  0  0  0  0  0  0999 V2000
   -5.6425    1.6255    2.0975 C   0  0  0  0  0  0  0  0  0  0  0  0
   -4.3643    1.2584    1.4978 C   0  0  0  0  0  0  0  0  0  0  0  0
   -3.4193    1.9671    0.7711 C   0  0  0  0  0  0  0  0  0  0  0  0
   -2.3307    1.2979    0.3607 C   0  0  0  0  0  0  0  0  0  0  0  0
   -2.1748    0.0071    0.6451 C   0  0  0  0  0  0  0  0  0  0  0  0
   -3.6381   -0.4600    1.5894 S   0  0  0  0  0  0  0  0  0  0  0  0
   -1.1767   -1.0043    0.3831 C   0  0  0  0  0  0  0  0  0  0  0  0
   -1.3499   -2.2947    0.8498 C   0  0  0  0  0  0  0  0  0  0  0  0
   -0.4028   -3.2986    0.6138 C   0  0  0  0  0  0  0  0  0  0  0  0
    0.7355   -3.0177   -0.0975 C   0  0  0  0  0  0  0  0  0  0  0  0
    0.9331   -1.7393   -0.5745 C   0  0  0  0  0  0  0  0  0  0  0  0
   -0.0119   -0.7669   -0.3301 C   0  0  0  0  0  0  0  0  0  0  0  0
    0.1841    0.5051   -0.8059 O   0  0  0  0  0  0  0  0  0  0  0  0
    1.3215    0.8774   -1.5265 C   0  0  0  0  0  0  0  0  0  0  0  0
    2.5865    0.7309   -0.7208 C   0  0  0  0  0  0  0  0  0  0  0  0
    2.6847    0.4278    0.5229 N   0  0  0  0  0  0  0  0  0  0  0  0
    4.0726    0.3953    0.8921 C   0  0  0  0  0  0  0  0  0  0  0  0
    4.7758    0.1738   -0.4244 C   0  0  0  0  0  0  0  0  0  0  0  0
    3.8753    0.9414   -1.3015 N   0  0  0  0  0  0  0  0  0  0  0  0
   -6.2758    0.7367    2.3279 H   0  0  0  0  0  0  0  0  0  0  0  0
   -6.2656    2.2230    1.3700 H   0  0  0  0  0  0  0  0  0  0  0  0
   -5.5454    2.3005    2.9898 H   0  0  0  0  0  0  0  0  0  0  0  0
   -3.6117    3.0413    0.5691 H   0  0  0  0  0  0  0  0  0  0  0  0
   -1.5402    1.8498   -0.2354 H   0  0  0  0  0  0  0  0  0  0  0  0
   -2.2104   -2.6179    1.4191 H   0  0  0  0  0  0  0  0  0  0  0  0
   -0.5540   -4.3034    0.9864 H   0  0  0  0  0  0  0  0  0  0  0  0
    1.4641   -3.7882   -0.2796 H   0  0  0  0  0  0  0  0  0  0  0  0
    1.8419   -1.5783   -1.1370 H   0  0  0  0  0  0  0  0  0  0  0  0
    1.2504    1.9785   -1.7683 H   0  0  0  0  0  0  0  0  0  0  0  0
    1.3927    0.3698   -2.5102 H   0  0  0  0  0  0  0  0  0  0  0  0
    4.2580   -0.5095    1.5208 H   0  0  0  0  0  0  0  0  0  0  0  0
    4.4077    1.3229    1.3980 H   0  0  0  0  0  0  0  0  0  0  0  0
    4.8446   -0.8756   -0.7080 H   0  0  0  0  0  0  0  0  0  0  0  0
    5.7433    0.7249   -0.4529 H   0  0  0  0  0  0  0  0  0  0  0  0
    4.1424    1.4992   -2.1429 H   0  0  0  0  0  0  0  0  0  0  0  0
  1  2  1  0
  2  3  2  0
  3  4  1  0
  4  5  2  0
  5  6  1  0
  5  7  1  0
  7  8  2  0
  8  9  1  0
  9 10  2  0
 10 11  1  0
 11 12  2  0
 12 13  1  0
 13 14  1  0
 14 15  1  0
 15 16  2  0
 16 17  1  0
 17 18  1  0
 18 19  1  0
  6  2  1  0
 12  7  1  0
 19 15  1  0
  1 20  1  0
  1 21  1  0
  1 22  1  0
  3 23  1  0
  4 24  1  0
  8 25  1  0
  9 26  1  0
 10 27  1  0
 11 28  1  0
 14 29  1  0
 14 30  1  0
 17 31  1  0
 17 32  1  0
 18 33  1  0
 18 34  1  0
 19 35  1  0
M  END
>  <Ligand ID>  (1) 
LIG0003844

>  <Ligand>  (1) 
CHEMBL142958

>  <SMILES>  (1) 
Cc1ccc(s1)c1ccccc1OCC1=NCCN1

>  <CID>  (1) 
10423384.0

>  <ChEMBL ID>  (1) 
nan

>  <InChiKey>  (1) 
OFXJYEGXFRBSGZ-UHFFFAOYSA-N

>  <InChi>  (1) 
InChI=1S/C15H16N2OS/c1-11-6-7-14(19-11)12-4-2-3-5-13(12)18-10-15-16-8-9-17-15/h2-7H,8-10H2,1H3,(H,16,17)

>  <IUPAC Name>  (1) 
2-[[2-(5-methylthiophen-2-yl)phenoxy]methyl]-4,5-dihydro-1H-imidazole

$$$$
