
     RDKit          3D

 33 33  0  0  0  0  0  0  0  0999 V2000
   -4.7293    0.6109   -0.4631 C   0  0  0  0  0  0  0  0  0  0  0  0
   -3.9547   -0.3752   -1.2830 C   0  0  0  0  0  0  0  0  0  0  0  0
   -2.7032   -0.8496   -0.5496 C   0  0  0  0  0  0  0  0  0  0  0  0
   -1.8678    0.3509   -0.2888 C   0  0  0  0  0  0  0  0  0  0  0  0
   -0.5724    0.0926    0.4352 C   0  0  0  0  0  0  0  0  0  0  0  0
    0.3470   -0.8279   -0.2787 C   0  0  0  0  0  0  0  0  0  0  0  0
    1.6005   -1.0353    0.5278 C   0  0  0  0  0  0  0  0  0  0  0  0
    2.3017    0.2662    0.7409 C   0  0  0  0  0  0  0  0  0  0  0  0
    3.5848    0.0565    1.5558 C   0  0  0  0  0  0  0  0  0  0  0  0
    4.5711   -0.2900    0.4673 C   0  0  0  0  0  0  0  0  0  0  0  0
    4.0631    0.4823   -0.6912 C   0  0  0  0  0  0  0  0  0  0  0  0
    4.7798    0.7983   -1.6955 O   0  0  0  0  0  0  0  0  0  0  0  0
    2.7085    0.7872   -0.4865 O   0  0  0  0  0  0  0  0  0  0  0  0
   -5.8155    0.3377   -0.5396 H   0  0  0  0  0  0  0  0  0  0  0  0
   -4.4664    0.5421    0.6096 H   0  0  0  0  0  0  0  0  0  0  0  0
   -4.6623    1.6582   -0.8572 H   0  0  0  0  0  0  0  0  0  0  0  0
   -3.6931    0.0655   -2.2642 H   0  0  0  0  0  0  0  0  0  0  0  0
   -4.5426   -1.2998   -1.4832 H   0  0  0  0  0  0  0  0  0  0  0  0
   -2.1423   -1.5085   -1.2622 H   0  0  0  0  0  0  0  0  0  0  0  0
   -3.0587   -1.3753    0.3338 H   0  0  0  0  0  0  0  0  0  0  0  0
   -2.4591    1.0621    0.3434 H   0  0  0  0  0  0  0  0  0  0  0  0
   -1.7057    0.8949   -1.2417 H   0  0  0  0  0  0  0  0  0  0  0  0
   -0.0879    1.1130    0.4839 H   0  0  0  0  0  0  0  0  0  0  0  0
   -0.7652   -0.2000    1.4831 H   0  0  0  0  0  0  0  0  0  0  0  0
    0.6804   -0.3676   -1.2561 H   0  0  0  0  0  0  0  0  0  0  0  0
   -0.1224   -1.7837   -0.5906 H   0  0  0  0  0  0  0  0  0  0  0  0
    1.3614   -1.4272    1.5591 H   0  0  0  0  0  0  0  0  0  0  0  0
    2.2887   -1.7741    0.0435 H   0  0  0  0  0  0  0  0  0  0  0  0
    1.6923    0.9500    1.3680 H   0  0  0  0  0  0  0  0  0  0  0  0
    3.8672    0.9985    2.0657 H   0  0  0  0  0  0  0  0  0  0  0  0
    3.4246   -0.7972    2.2538 H   0  0  0  0  0  0  0  0  0  0  0  0
    5.6017    0.0041    0.7438 H   0  0  0  0  0  0  0  0  0  0  0  0
    4.4759   -1.3566    0.2166 H   0  0  0  0  0  0  0  0  0  0  0  0
  1  2  1  0
  2  3  1  0
  3  4  1  0
  4  5  1  0
  5  6  1  0
  6  7  1  0
  7  8  1  0
  8  9  1  0
  9 10  1  0
 10 11  1  0
 11 12  2  0
 11 13  1  0
 13  8  1  0
  1 14  1  0
  1 15  1  0
  1 16  1  0
  2 17  1  0
  2 18  1  0
  3 19  1  0
  3 20  1  0
  4 21  1  0
  4 22  1  0
  5 23  1  0
  5 24  1  0
  6 25  1  0
  6 26  1  0
  7 27  1  0
  7 28  1  0
  8 29  1  0
  9 30  1  0
  9 31  1  0
 10 32  1  0
 10 33  1  0
M  END
>  <Ligand ID>  (1) 
LIG0000625

>  <Ligand>  (1) 
Gamma-undecalactone

>  <SMILES>  (1) 
CCCCCCCC1CCC(=O)O1

>  <CID>  (1) 
7714.0

>  <ChEMBL ID>  (1) 
nan

>  <InChiKey>  (1) 
PHXATPHONSXBIL-UHFFFAOYSA-N

>  <InChi>  (1) 
InChI=1S/C11H20O2/c1-2-3-4-5-6-7-10-8-9-11(12)13-10/h10H,2-9H2,1H3

>  <IUPAC Name>  (1) 
5-heptyloxolan-2-one

$$$$
