
     RDKit          3D

169172  0  0  0  0  0  0  0  0999 V2000
  -11.1161    1.0131   -7.0741 C   0  0  0  0  0  0  0  0  0  0  0  0
  -10.7420    1.3210   -5.7101 N   0  0  0  0  0  0  0  0  0  0  0  0
  -11.5078    0.8854   -4.7557 C   0  0  0  0  0  0  0  0  0  0  0  0
  -11.1696    1.1714   -3.3811 N   0  0  0  0  0  0  0  0  0  0  0  0
  -10.0121    1.9327   -3.0439 C   0  0  0  0  0  0  0  0  0  0  0  0
   -8.6928    1.1915   -3.3397 C   0  0  0  0  0  0  0  0  0  0  0  0
   -8.5891   -0.0727   -2.5691 C   0  0  0  0  0  0  0  0  0  0  0  0
   -8.6040    0.1863   -1.0802 C   0  0  1  0  0  0  0  0  0  0  0  0
   -8.5696   -1.1648   -0.4414 C   0  0  0  0  0  0  0  0  0  0  0  0
   -7.5933   -1.5843    0.2269 O   0  0  0  0  0  0  0  0  0  0  0  0
   -9.7363   -1.9512   -0.6420 N   0  0  0  0  0  0  0  0  0  0  0  0
   -9.9315   -3.2892   -0.1337 C   0  0  2  0  0  0  0  0  0  0  0  0
  -10.8701   -4.1233   -0.8620 C   0  0  0  0  0  0  0  0  0  0  0  0
  -10.9598   -5.3540   -0.5167 O   0  0  0  0  0  0  0  0  0  0  0  0
  -11.7071   -3.6760   -1.9399 N   0  0  0  0  0  0  0  0  0  0  0  0
  -10.3695   -3.1958    1.3427 C   0  0  0  0  0  0  0  0  0  0  0  0
  -11.5700   -2.4138    1.5792 C   0  0  0  0  0  0  0  0  0  0  0  0
  -11.4733   -1.0616    2.0045 C   0  0  0  0  0  0  0  0  0  0  0  0
  -12.6970   -0.5412    2.1361 N   0  0  0  0  0  0  0  0  0  0  0  0
  -13.6028   -1.4829    1.8185 C   0  0  0  0  0  0  0  0  0  0  0  0
  -12.9128   -2.6222    1.4801 C   0  0  0  0  0  0  0  0  0  0  0  0
  -13.6233   -3.7349    1.1237 C   0  0  0  0  0  0  0  0  0  0  0  0
  -15.0130   -3.6493    1.1209 C   0  0  0  0  0  0  0  0  0  0  0  0
  -15.6972   -2.5158    1.4560 C   0  0  0  0  0  0  0  0  0  0  0  0
  -14.9782   -1.4070    1.8134 C   0  0  0  0  0  0  0  0  0  0  0  0
   -7.5093    0.9198   -0.5563 N   0  0  0  0  0  0  0  0  0  0  0  0
   -6.2651    1.2602   -1.0789 C   0  0  0  0  0  0  0  0  0  0  0  0
   -5.7870    0.9476   -2.1943 O   0  0  0  0  0  0  0  0  0  0  0  0
   -5.3813    2.1091   -0.2107 C   0  0  1  0  0  0  0  0  0  0  0  0
   -4.1066    2.3399   -0.8296 N   0  0  0  0  0  0  0  0  0  0  0  0
   -2.9493    2.0442   -0.0565 C   0  0  0  0  0  0  0  0  0  0  0  0
   -3.0236    1.5495    1.0975 O   0  0  0  0  0  0  0  0  0  0  0  0
   -1.6122    2.3002   -0.5368 N   0  0  0  0  0  0  0  0  0  0  0  0
   -0.6006    1.9799    0.3745 N   0  0  0  0  0  0  0  0  0  0  0  0
    0.2590    0.8669    0.3147 C   0  0  0  0  0  0  0  0  0  0  0  0
    0.1731    0.0644   -0.6394 O   0  0  0  0  0  0  0  0  0  0  0  0
    1.2584    0.7103    1.4353 C   0  0  1  0  0  0  0  0  0  0  0  0
    2.2923   -0.2180    1.1571 N   0  0  0  0  0  0  0  0  0  0  0  0
    1.9696   -1.5603    0.8906 C   0  0  0  0  0  0  0  0  0  0  0  0
    0.7434   -1.9530    0.8908 O   0  0  0  0  0  0  0  0  0  0  0  0
    2.9545   -2.6405    0.5799 C   0  0  2  0  0  0  0  0  0  0  0  0
    2.5058   -4.0011    0.9179 C   0  0  2  0  0  0  0  0  0  0  0  0
    1.1680   -4.2411    0.5211 O   0  0  0  0  0  0  0  0  0  0  0  0
    2.7621   -4.4444    2.3235 C   0  0  0  0  0  0  0  0  0  0  0  0
    4.2884   -2.3886    0.9889 N   0  0  0  0  0  0  0  0  0  0  0  0
    5.2775   -1.6014    0.3893 C   0  0  0  0  0  0  0  0  0  0  0  0
    4.9712   -1.0104   -0.7062 O   0  0  0  0  0  0  0  0  0  0  0  0
    6.6122   -1.4476    0.9783 C   0  0  1  0  0  0  0  0  0  0  0  0
    7.4267   -0.5872    0.0974 N   0  0  0  0  0  0  0  0  0  0  0  0
    8.7961   -0.7941   -0.1440 C   0  0  0  0  0  0  0  0  0  0  0  0
    9.5003   -1.7150    0.3155 O   0  0  0  0  0  0  0  0  0  0  0  0
    9.4716    0.2673   -1.0826 C   0  0  1  0  0  0  0  0  0  0  0  0
   10.8458   -0.1441   -1.0057 N   0  0  0  0  0  0  0  0  0  0  0  0
   11.5076    0.2088    0.2162 C   0  0  0  0  0  0  0  0  0  0  0  0
   10.7245    0.8609    1.0240 O   0  0  0  0  0  0  0  0  0  0  0  0
   12.8301   -0.0376    0.6915 C   0  0  1  0  0  0  0  0  0  0  0  0
   13.9503    0.6787    0.0698 C   0  0  0  0  0  0  0  0  0  0  0  0
   14.2300    0.4784   -1.3442 C   0  0  0  0  0  0  0  0  0  0  0  0
   15.0074   -0.6305   -1.6854 C   0  0  0  0  0  0  0  0  0  0  0  0
   15.4046   -0.9058   -2.9626 C   0  0  0  0  0  0  0  0  0  0  0  0
   15.0390   -0.0724   -3.9891 C   0  0  0  0  0  0  0  0  0  0  0  0
   14.2714    1.0245   -3.6658 C   0  0  0  0  0  0  0  0  0  0  0  0
   13.8699    1.3032   -2.3728 C   0  0  0  0  0  0  0  0  0  0  0  0
   15.4428   -0.3490   -5.3031 O   0  0  0  0  0  0  0  0  0  0  0  0
   12.8624    0.2788    2.1703 N   0  0  0  0  0  0  0  0  0  0  0  0
   13.2329   -0.7260    3.0924 C   0  0  0  0  0  0  0  0  0  0  0  0
   13.5420   -1.8936    2.6999 O   0  0  0  0  0  0  0  0  0  0  0  0
   13.2799   -0.4752    4.5475 C   0  0  0  0  0  0  0  0  0  0  0  0
    8.8127    0.2250   -2.3737 C   0  0  0  0  0  0  0  0  0  0  0  0
    9.2643    1.2127   -3.3854 C   0  0  0  0  0  0  0  0  0  0  0  0
   10.6276    1.1446   -3.8766 C   0  0  0  0  0  0  0  0  0  0  0  0
   11.2939    2.2147   -3.9974 O   0  0  0  0  0  0  0  0  0  0  0  0
   11.2959   -0.0285   -4.2450 O   0  0  0  0  0  0  0  0  0  0  0  0
    6.4946   -0.5947    2.2572 C   0  0  0  0  0  0  0  0  0  0  0  0
    5.6318   -1.2128    3.2326 C   0  0  0  0  0  0  0  0  0  0  0  0
    4.4276   -0.9320    3.4797 O   0  0  0  0  0  0  0  0  0  0  0  0
    6.1817   -2.2803    4.0387 N   0  0  0  0  0  0  0  0  0  0  0  0
    1.6109    1.9195    2.1320 C   0  0  0  0  0  0  0  0  0  0  0  0
    2.6127    1.8277    3.2140 C   0  0  0  0  0  0  0  0  0  0  0  0
    2.3274    1.4564    4.5067 C   0  0  0  0  0  0  0  0  0  0  0  0
    3.3396    1.4626    5.4683 C   0  0  0  0  0  0  0  0  0  0  0  0
    4.6125    1.8332    5.1437 C   0  0  0  0  0  0  0  0  0  0  0  0
    4.9271    2.2097    3.8572 C   0  0  0  0  0  0  0  0  0  0  0  0
    3.9128    2.1956    2.9240 C   0  0  0  0  0  0  0  0  0  0  0  0
   -6.0995    3.4249    0.0727 C   0  0  0  0  0  0  0  0  0  0  0  0
   -5.2989    4.3652    0.9341 C   0  0  0  0  0  0  0  0  0  0  0  0
   -4.9666    3.8263    2.2855 C   0  0  0  0  0  0  0  0  0  0  0  0
   -6.0188    5.6877    1.0990 C   0  0  0  0  0  0  0  0  0  0  0  0
  -12.6934    0.1219   -5.0565 N   0  0  0  0  0  0  0  0  0  0  0  0
  -10.5456    1.6724   -7.7778 H   0  0  0  0  0  0  0  0  0  0  0  0
  -10.7891   -0.0314   -7.2503 H   0  0  0  0  0  0  0  0  0  0  0  0
  -12.2107    1.0791   -7.2580 H   0  0  0  0  0  0  0  0  0  0  0  0
  -11.8248    0.7843   -2.6438 H   0  0  0  0  0  0  0  0  0  0  0  0
  -10.0041    2.8941   -3.6503 H   0  0  0  0  0  0  0  0  0  0  0  0
  -10.0766    2.2823   -2.0015 H   0  0  0  0  0  0  0  0  0  0  0  0
   -8.7863    0.9517   -4.4398 H   0  0  0  0  0  0  0  0  0  0  0  0
   -7.9296    1.9646   -3.1674 H   0  0  0  0  0  0  0  0  0  0  0  0
   -7.7971   -0.7476   -2.8849 H   0  0  0  0  0  0  0  0  0  0  0  0
   -9.5560   -0.6285   -2.7601 H   0  0  0  0  0  0  0  0  0  0  0  0
   -9.5247    0.7412   -0.8995 H   0  0  0  0  0  0  0  0  0  0  0  0
  -10.5562   -1.5707   -1.2084 H   0  0  0  0  0  0  0  0  0  0  0  0
   -8.9075   -3.7766   -0.0855 H   0  0  0  0  0  0  0  0  0  0  0  0
  -12.3865   -2.8740   -1.8124 H   0  0  0  0  0  0  0  0  0  0  0  0
  -11.6469   -4.1539   -2.8678 H   0  0  0  0  0  0  0  0  0  0  0  0
  -10.5198   -4.2678    1.6537 H   0  0  0  0  0  0  0  0  0  0  0  0
   -9.5028   -2.8575    1.9578 H   0  0  0  0  0  0  0  0  0  0  0  0
  -10.5668   -0.5087    2.2035 H   0  0  0  0  0  0  0  0  0  0  0  0
  -12.9169    0.4443    2.4417 H   0  0  0  0  0  0  0  0  0  0  0  0
  -13.0944   -4.6339    0.8719 H   0  0  0  0  0  0  0  0  0  0  0  0
  -15.6012   -4.5269    0.8337 H   0  0  0  0  0  0  0  0  0  0  0  0
  -16.7913   -2.4413    1.4589 H   0  0  0  0  0  0  0  0  0  0  0  0
  -15.5173   -0.4911    2.0863 H   0  0  0  0  0  0  0  0  0  0  0  0
   -7.6909    1.2833    0.4584 H   0  0  0  0  0  0  0  0  0  0  0  0
   -5.2297    1.5742    0.7353 H   0  0  0  0  0  0  0  0  0  0  0  0
   -3.9729    2.7079   -1.8091 H   0  0  0  0  0  0  0  0  0  0  0  0
   -1.4534    2.6937   -1.4842 H   0  0  0  0  0  0  0  0  0  0  0  0
   -0.5089    2.6795    1.1777 H   0  0  0  0  0  0  0  0  0  0  0  0
    0.5637    0.0952    2.1567 H   0  0  0  0  0  0  0  0  0  0  0  0
    3.2925    0.0675    1.1457 H   0  0  0  0  0  0  0  0  0  0  0  0
    2.9765   -2.6063   -0.5849 H   0  0  0  0  0  0  0  0  0  0  0  0
    3.0893   -4.7270    0.2672 H   0  0  0  0  0  0  0  0  0  0  0  0
    0.8428   -5.1026    0.8705 H   0  0  0  0  0  0  0  0  0  0  0  0
    3.8373   -4.7367    2.4792 H   0  0  0  0  0  0  0  0  0  0  0  0
    2.2068   -5.3997    2.5645 H   0  0  0  0  0  0  0  0  0  0  0  0
    2.5519   -3.6817    3.0985 H   0  0  0  0  0  0  0  0  0  0  0  0
    4.5950   -2.9230    1.8687 H   0  0  0  0  0  0  0  0  0  0  0  0
    7.1094   -2.3884    1.1983 H   0  0  0  0  0  0  0  0  0  0  0  0
    6.8857    0.2039   -0.3382 H   0  0  0  0  0  0  0  0  0  0  0  0
    9.3231    1.2330   -0.5558 H   0  0  0  0  0  0  0  0  0  0  0  0
   11.4086   -0.6583   -1.6871 H   0  0  0  0  0  0  0  0  0  0  0  0
   13.0384   -1.1548    0.6840 H   0  0  0  0  0  0  0  0  0  0  0  0
   13.8351    1.8127    0.1974 H   0  0  0  0  0  0  0  0  0  0  0  0
   14.9247    0.4963    0.6356 H   0  0  0  0  0  0  0  0  0  0  0  0
   15.3295   -1.3351   -0.9124 H   0  0  0  0  0  0  0  0  0  0  0  0
   16.0090   -1.7678   -3.2082 H   0  0  0  0  0  0  0  0  0  0  0  0
   13.9961    1.6715   -4.5081 H   0  0  0  0  0  0  0  0  0  0  0  0
   13.2708    2.1705   -2.1263 H   0  0  0  0  0  0  0  0  0  0  0  0
   14.7313   -0.3649   -6.0244 H   0  0  0  0  0  0  0  0  0  0  0  0
   12.6058    1.2470    2.4676 H   0  0  0  0  0  0  0  0  0  0  0  0
   14.3205   -0.3552    4.9167 H   0  0  0  0  0  0  0  0  0  0  0  0
   12.7588   -1.2795    5.0824 H   0  0  0  0  0  0  0  0  0  0  0  0
   12.7293    0.4797    4.7603 H   0  0  0  0  0  0  0  0  0  0  0  0
    7.6831    0.3075   -2.2261 H   0  0  0  0  0  0  0  0  0  0  0  0
    8.8692   -0.8165   -2.8451 H   0  0  0  0  0  0  0  0  0  0  0  0
    8.5384    1.1677   -4.2640 H   0  0  0  0  0  0  0  0  0  0  0  0
    9.1125    2.2767   -3.0055 H   0  0  0  0  0  0  0  0  0  0  0  0
   11.7896   -0.0188   -5.1234 H   0  0  0  0  0  0  0  0  0  0  0  0
    6.1568    0.4187    2.0058 H   0  0  0  0  0  0  0  0  0  0  0  0
    7.5439   -0.4445    2.6538 H   0  0  0  0  0  0  0  0  0  0  0  0
    5.8914   -3.2775    3.8970 H   0  0  0  0  0  0  0  0  0  0  0  0
    6.8911   -2.0145    4.7808 H   0  0  0  0  0  0  0  0  0  0  0  0
    0.7061    2.3828    2.6812 H   0  0  0  0  0  0  0  0  0  0  0  0
    1.9128    2.7884    1.4883 H   0  0  0  0  0  0  0  0  0  0  0  0
    1.3114    1.1653    4.7462 H   0  0  0  0  0  0  0  0  0  0  0  0
    3.1341    1.1765    6.4846 H   0  0  0  0  0  0  0  0  0  0  0  0
    5.4207    1.8504    5.8636 H   0  0  0  0  0  0  0  0  0  0  0  0
    5.9049    2.5100    3.5325 H   0  0  0  0  0  0  0  0  0  0  0  0
    4.1477    2.4950    1.9077 H   0  0  0  0  0  0  0  0  0  0  0  0
   -6.4348    3.9157   -0.8503 H   0  0  0  0  0  0  0  0  0  0  0  0
   -7.0051    3.1695    0.6554 H   0  0  0  0  0  0  0  0  0  0  0  0
   -4.3243    4.6404    0.4634 H   0  0  0  0  0  0  0  0  0  0  0  0
   -5.1646    2.7378    2.4085 H   0  0  0  0  0  0  0  0  0  0  0  0
   -5.6731    4.3044    3.0251 H   0  0  0  0  0  0  0  0  0  0  0  0
   -3.9498    4.1076    2.6450 H   0  0  0  0  0  0  0  0  0  0  0  0
   -6.0512    6.1694    0.0988 H   0  0  0  0  0  0  0  0  0  0  0  0
   -5.3157    6.3355    1.6950 H   0  0  0  0  0  0  0  0  0  0  0  0
   -6.9996    5.5985    1.5749 H   0  0  0  0  0  0  0  0  0  0  0  0
  -13.5304    0.1445   -4.4263 H   0  0  0  0  0  0  0  0  0  0  0  0
  -12.6825   -0.4610   -5.9358 H   0  0  0  0  0  0  0  0  0  0  0  0
  1  2  1  0
  2  3  2  3
  3  4  1  0
  4  5  1  0
  5  6  1  0
  6  7  1  0
  7  8  1  0
  8  9  1  0
  9 10  2  0
  9 11  1  0
 11 12  1  0
 12 13  1  0
 13 14  2  0
 13 15  1  0
 12 16  1  0
 16 17  1  0
 17 18  2  0
 18 19  1  0
 19 20  1  0
 20 21  2  0
 21 22  1  0
 22 23  2  0
 23 24  1  0
 24 25  2  0
  8 26  1  0
 26 27  1  0
 27 28  2  0
 27 29  1  0
 29 30  1  0
 30 31  1  0
 31 32  2  0
 31 33  1  0
 33 34  1  0
 34 35  1  0
 35 36  2  0
 35 37  1  0
 37 38  1  0
 38 39  1  0
 39 40  2  0
 39 41  1  0
 41 42  1  0
 42 43  1  0
 42 44  1  0
 41 45  1  0
 45 46  1  0
 46 47  2  0
 46 48  1  0
 48 49  1  0
 49 50  1  0
 50 51  2  0
 50 52  1  0
 52 53  1  0
 53 54  1  0
 54 55  2  0
 54 56  1  0
 56 57  1  0
 57 58  1  0
 58 59  2  0
 59 60  1  0
 60 61  2  0
 61 62  1  0
 62 63  2  0
 61 64  1  0
 56 65  1  0
 65 66  1  0
 66 67  2  0
 66 68  1  0
 52 69  1  0
 69 70  1  0
 70 71  1  0
 71 72  2  0
 71 73  1  0
 48 74  1  0
 74 75  1  0
 75 76  2  0
 75 77  1  0
 37 78  1  0
 78 79  1  0
 79 80  2  0
 80 81  1  0
 81 82  2  0
 82 83  1  0
 83 84  2  0
 29 85  1  0
 85 86  1  0
 86 87  1  0
 86 88  1  0
  3 89  1  0
 21 17  1  0
 63 58  1  0
 84 79  1  0
 25 20  1  0
  1 90  1  0
  1 91  1  0
  1 92  1  0
  4 93  1  0
  5 94  1  0
  5 95  1  0
  6 96  1  0
  6 97  1  0
  7 98  1  0
  7 99  1  0
  8100  1  6
 11101  1  0
 12102  1  1
 15103  1  0
 15104  1  0
 16105  1  0
 16106  1  0
 18107  1  0
 19108  1  0
 22109  1  0
 23110  1  0
 24111  1  0
 25112  1  0
 26113  1  0
 29114  1  1
 30115  1  0
 33116  1  0
 34117  1  0
 37118  1  1
 38119  1  0
 41120  1  6
 42121  1  6
 43122  1  0
 44123  1  0
 44124  1  0
 44125  1  0
 45126  1  0
 48127  1  1
 49128  1  0
 52129  1  1
 53130  1  0
 56131  1  1
 57132  1  0
 57133  1  0
 59134  1  0
 60135  1  0
 62136  1  0
 63137  1  0
 64138  1  0
 65139  1  0
 68140  1  0
 68141  1  0
 68142  1  0
 69143  1  0
 69144  1  0
 70145  1  0
 70146  1  0
 73147  1  0
 74148  1  0
 74149  1  0
 77150  1  0
 77151  1  0
 78152  1  0
 78153  1  0
 80154  1  0
 81155  1  0
 82156  1  0
 83157  1  0
 84158  1  0
 85159  1  0
 85160  1  0
 86161  1  0
 87162  1  0
 87163  1  0
 87164  1  0
 88165  1  0
 88166  1  0
 88167  1  0
 89168  1  0
 89169  1  0
M  END
>  <Ligand ID>  (1) 
LIG0005350

>  <Ligand>  (1) 
CHEMBL3958495

>  <SMILES>  (1) 
CN=C(NCCC[C@@H](C(=O)N[C@H](C(=O)N)Cc1c[nH]c2c1cccc2)NC(=O)[C@@H](NC(=O)NNC(=O)[C@@H](NC(=O)[C@H]([C@H](O)C)NC(=O)[C@@H](NC(=O)[C@@H](NC(=O)[C@@H](Cc1ccc(cc1)O)NC(=O)C)CCC(=O)O)CC(=O)N)Cc1ccccc1)CC(C)C)N

>  <CID>  (1) 
25084922.0

>  <ChEMBL ID>  (1) 
nan

>  <InChiKey>  (1) 
NUBKQUNKDIZGRO-PZMWIHLLSA-N

>  <InChi>  (1) 
InChI=1S/C58H80N16O15/c1-30(2)24-42(52(84)66-39(16-11-23-63-57(61)62-5)50(82)68-41(49(60)81)27-35-29-64-38-15-10-9-14-37(35)38)71-58(89)74-73-55(87)44(25-33-12-7-6-8-13-33)70-56(88)48(31(3)75)72-54(86)45(28-46(59)78)69-51(83)40(21-22-47(79)80)67-53(85)43(65-32(4)76)26-34-17-19-36(77)20-18-34/h6-10,12-15,17-20,29-31,39-45,48,64,75,77H,11,16,21-28H2,1-5H3,(H2,59,78)(H2,60,81)(H,65,76)(H,66,84)(H,67,85)(H,68,82)(H,69,83)(H,70,88)(H,72,86)(H,73,87)(H,79,80)(H3,61,62,63)(H2,71,74,89)/t31-,39+,40+,41+,42+,43-,44+,45+,48+/m1/s1

>  <IUPAC Name>  (1) 
(4S)-4-[[(2R)-2-acetamido-3-(4-hydroxyphenyl)propanoyl]amino]-5-[[(2S)-4-amino-1-[[(2S,3R)-1-[[(2S)-1-[2-[[(2S)-1-[[(2S)-1-[[(2S)-1-amino-3-(1H-indol-3-yl)-1-oxopropan-2-yl]amino]-5-[(N'-methylcarbamimidoyl)amino]-1-oxopentan-2-yl]amino]-4-methyl-1-oxopentan-2-yl]carbamoyl]hydrazinyl]-1-oxo-3-phenylpropan-2-yl]amino]-3-hydroxy-1-oxobutan-2-yl]amino]-1,4-dioxobutan-2-yl]amino]-5-oxopentanoic acid

$$$$
