
     RDKit          3D

 70 77  0  0  0  0  0  0  0  0999 V2000
    3.5740   -2.0335   -0.0581 C   0  0  0  0  0  0  0  0  0  0  0  0
    3.0473   -0.7859   -0.1758 O   0  0  0  0  0  0  0  0  0  0  0  0
    1.6982   -0.6575   -0.3084 C   0  0  2  0  0  0  0  0  0  0  0  0
    1.2427   -1.4082   -1.5753 C   0  0  0  0  0  0  0  0  0  0  0  0
   -0.2554   -1.3445   -1.7320 C   0  0  0  0  0  0  0  0  0  0  0  0
   -0.7656   -0.2695   -0.8049 C   0  0  2  0  0  0  0  0  0  0  0  0
    0.0309    0.9594   -1.1068 C   0  0  0  0  0  0  0  0  0  0  0  0
    1.3730    0.8169   -0.4939 C   0  0  2  0  0  0  0  0  0  0  0  0
    2.4463    1.6245   -1.1404 C   0  0  1  0  0  0  0  0  0  0  0  0
    3.7042    1.6903   -0.4079 C   0  0  0  0  0  0  0  0  0  0  0  0
    3.8714    1.5024    0.9457 C   0  0  0  0  0  0  0  0  0  0  0  0
    5.1084    1.5744    1.5711 C   0  0  0  0  0  0  0  0  0  0  0  0
    6.2533    1.8435    0.8515 C   0  0  0  0  0  0  0  0  0  0  0  0
    6.1072    2.0350   -0.5041 C   0  0  0  0  0  0  0  0  0  0  0  0
    4.8778    1.9632   -1.1247 C   0  0  0  0  0  0  0  0  0  0  0  0
    2.7546    1.1042   -2.4194 O   0  0  0  0  0  0  0  0  0  0  0  0
   -0.5605   -0.7905    0.6009 C   0  0  2  0  0  0  0  0  0  0  0  0
    0.8706   -1.0911    0.8700 C   0  0  1  0  0  0  0  0  0  0  0  0
    0.9357   -2.4901    1.1726 O   0  0  0  0  0  0  0  0  0  0  0  0
   -0.2563   -3.1204    0.8574 C   0  0  0  0  0  0  0  0  0  0  0  0
   -1.1259   -2.1597    0.4961 C   0  0  0  0  0  0  0  0  0  0  0  0
   -2.4166   -2.2902    0.0932 C   0  0  0  0  0  0  0  0  0  0  0  0
   -3.1335   -1.0639   -0.3117 C   0  0  0  0  0  0  0  0  0  0  0  0
   -2.2300    0.0053   -0.8989 C   0  0  1  0  0  0  0  0  0  0  0  0
   -2.3947    1.2540   -0.1581 N   0  0  0  0  0  0  0  0  0  0  0  0
   -2.1384    1.0949    1.2430 C   0  0  0  0  0  0  0  0  0  0  0  0
   -1.2685   -0.0389    1.6517 C   0  0  0  0  0  0  0  0  0  0  0  0
   -3.7079    1.7813   -0.3805 C   0  0  0  0  0  0  0  0  0  0  0  0
   -3.9950    3.0636    0.3297 C   0  0  0  0  0  0  0  0  0  0  0  0
   -5.4123    3.5860    0.0593 C   0  0  0  0  0  0  0  0  0  0  0  0
   -4.9727    3.1401    1.4413 C   0  0  0  0  0  0  0  0  0  0  0  0
   -2.9155   -3.5737    0.0495 C   0  0  0  0  0  0  0  0  0  0  0  0
   -2.0782   -4.6328    0.4128 C   0  0  0  0  0  0  0  0  0  0  0  0
   -0.7511   -4.4272    0.8173 C   0  0  0  0  0  0  0  0  0  0  0  0
    0.0867   -5.4525    1.1767 O   0  0  0  0  0  0  0  0  0  0  0  0
    3.2163   -2.6051    0.8183 H   0  0  0  0  0  0  0  0  0  0  0  0
    4.6782   -1.8929    0.1443 H   0  0  0  0  0  0  0  0  0  0  0  0
    3.5559   -2.6532   -0.9765 H   0  0  0  0  0  0  0  0  0  0  0  0
    1.6992   -0.9740   -2.4686 H   0  0  0  0  0  0  0  0  0  0  0  0
    1.6074   -2.4559   -1.5314 H   0  0  0  0  0  0  0  0  0  0  0  0
   -0.5223   -1.1203   -2.8026 H   0  0  0  0  0  0  0  0  0  0  0  0
   -0.6371   -2.3478   -1.5490 H   0  0  0  0  0  0  0  0  0  0  0  0
   -0.5229    1.8655   -0.7917 H   0  0  0  0  0  0  0  0  0  0  0  0
    0.1235    1.0254   -2.2265 H   0  0  0  0  0  0  0  0  0  0  0  0
    1.2777    1.2506    0.5426 H   0  0  0  0  0  0  0  0  0  0  0  0
    2.0579    2.6394   -1.3045 H   0  0  0  0  0  0  0  0  0  0  0  0
    3.0307    1.2988    1.5567 H   0  0  0  0  0  0  0  0  0  0  0  0
    5.2286    1.4254    2.6318 H   0  0  0  0  0  0  0  0  0  0  0  0
    7.2292    1.9124    1.2676 H   0  0  0  0  0  0  0  0  0  0  0  0
    6.9871    2.2482   -1.0974 H   0  0  0  0  0  0  0  0  0  0  0  0
    4.8562    2.1276   -2.1979 H   0  0  0  0  0  0  0  0  0  0  0  0
    3.5732    0.5430   -2.3860 H   0  0  0  0  0  0  0  0  0  0  0  0
    1.2377   -0.5263    1.7552 H   0  0  0  0  0  0  0  0  0  0  0  0
   -3.6133   -0.6443    0.5929 H   0  0  0  0  0  0  0  0  0  0  0  0
   -3.9363   -1.3505   -1.0044 H   0  0  0  0  0  0  0  0  0  0  0  0
   -2.5666    0.1973   -1.9326 H   0  0  0  0  0  0  0  0  0  0  0  0
   -1.6440    2.0499    1.5656 H   0  0  0  0  0  0  0  0  0  0  0  0
   -3.1160    1.1152    1.7701 H   0  0  0  0  0  0  0  0  0  0  0  0
   -0.5183    0.3006    2.4312 H   0  0  0  0  0  0  0  0  0  0  0  0
   -1.9040   -0.7344    2.2631 H   0  0  0  0  0  0  0  0  0  0  0  0
   -3.7835    2.0003   -1.4817 H   0  0  0  0  0  0  0  0  0  0  0  0
   -4.5253    1.0338   -0.2092 H   0  0  0  0  0  0  0  0  0  0  0  0
   -3.2025    3.8130    0.2754 H   0  0  0  0  0  0  0  0  0  0  0  0
   -5.5183    4.6622   -0.1462 H   0  0  0  0  0  0  0  0  0  0  0  0
   -6.1424    2.9278   -0.4387 H   0  0  0  0  0  0  0  0  0  0  0  0
   -4.8638    3.9739    2.1531 H   0  0  0  0  0  0  0  0  0  0  0  0
   -5.3794    2.1733    1.8090 H   0  0  0  0  0  0  0  0  0  0  0  0
   -3.9363   -3.7167   -0.2640 H   0  0  0  0  0  0  0  0  0  0  0  0
   -2.4717   -5.6622    0.3808 H   0  0  0  0  0  0  0  0  0  0  0  0
    0.8410   -5.3086    1.8122 H   0  0  0  0  0  0  0  0  0  0  0  0
  1  2  1  0
  3  2  1  1
  3  4  1  0
  4  5  1  0
  6  5  1  6
  6  7  1  0
  7  8  1  0
  8  9  1  0
  9 10  1  0
 10 11  2  0
 11 12  1  0
 12 13  2  0
 13 14  1  0
 14 15  2  0
  9 16  1  0
  6 17  1  0
 17 18  1  0
 18 19  1  0
 19 20  1  0
 20 21  2  0
 21 22  1  0
 22 23  1  0
 23 24  1  0
 24 25  1  0
 25 26  1  0
 26 27  1  0
 25 28  1  0
 28 29  1  0
 29 30  1  0
 30 31  1  0
 22 32  2  0
 32 33  1  0
 33 34  2  0
 34 35  1  0
  8  3  1  0
 15 10  1  0
 17 27  1  1
 31 29  1  0
 18  3  1  0
 34 20  1  0
 24  6  1  0
 21 17  1  0
  1 36  1  0
  1 37  1  0
  1 38  1  0
  4 39  1  0
  4 40  1  0
  5 41  1  0
  5 42  1  0
  7 43  1  0
  7 44  1  0
  8 45  1  1
  9 46  1  6
 11 47  1  0
 12 48  1  0
 13 49  1  0
 14 50  1  0
 15 51  1  0
 16 52  1  0
 18 53  1  1
 23 54  1  0
 23 55  1  0
 24 56  1  6
 26 57  1  0
 26 58  1  0
 27 59  1  0
 27 60  1  0
 28 61  1  0
 28 62  1  0
 29 63  1  0
 30 64  1  0
 30 65  1  0
 31 66  1  0
 31 67  1  0
 32 68  1  0
 33 69  1  0
 35 70  1  0
M  END
>  <Ligand ID>  (1) 
LIG0004691

>  <Ligand>  (1) 
CHEMBL3262090

>  <SMILES>  (1) 
CO[C@]12CC[C@]3(C[C@@H]1[C@@H](c1ccccc1)O)[C@@]14[C@H]2Oc2c4c(C[C@H]3N(CC1)CC1CC1)ccc2O

>  <CID>  (1) 
71230334.0

>  <ChEMBL ID>  (1) 
nan

>  <InChiKey>  (1) 
QYHVPWDIPSDDCT-QDVRVZIDSA-N

>  <InChi>  (1) 
InChI=1S/C30H35NO4/c1-34-30-12-11-28(16-21(30)25(33)19-5-3-2-4-6-19)23-15-20-9-10-22(32)26-24(20)29(28,27(30)35-26)13-14-31(23)17-18-7-8-18/h2-6,9-10,18,21,23,25,27,32-33H,7-8,11-17H2,1H3/t21-,23-,25-,27-,28-,29+,30-/m1/s1

>  <IUPAC Name>  (1) 
(1S,2S,6R,14R,15R,16R)-5-(cyclopropylmethyl)-16-[(S)-hydroxy(phenyl)methyl]-15-methoxy-13-oxa-5-azahexacyclo[13.2.2.12,8.01,6.02,14.012,20]icosa-8(20),9,11-trien-11-ol

$$$$
