
     RDKit          3D

141143  0  0  0  0  0  0  0  0999 V2000
   -9.3671   -1.7206   -0.4958 C   0  0  0  0  0  0  0  0  0  0  0  0
   -8.3787   -1.6688    0.6749 C   0  0  0  0  0  0  0  0  0  0  0  0
   -7.3700   -0.6230    0.3658 C   0  0  1  0  0  0  0  0  0  0  0  0
   -6.3012   -0.4573    1.4687 C   0  0  2  0  0  0  0  0  0  0  0  0
   -5.3707    0.5737    1.0377 N   0  0  0  0  0  0  0  0  0  0  0  0
   -5.7735    1.9269    1.2309 C   0  0  0  0  0  0  0  0  0  0  0  0
   -6.9466    2.0937    1.5938 O   0  0  0  0  0  0  0  0  0  0  0  0
   -4.9048    3.1059    1.0187 C   0  0  1  0  0  0  0  0  0  0  0  0
   -3.5243    2.7700    0.9495 N   0  0  0  0  0  0  0  0  0  0  0  0
   -2.7632    2.3661   -0.1845 C   0  0  0  0  0  0  0  0  0  0  0  0
   -3.3744    2.2440   -1.2401 O   0  0  0  0  0  0  0  0  0  0  0  0
   -1.3187    2.1402    0.0439 C   0  0  0  0  0  0  0  0  0  0  0  0
   -0.4613    2.0084   -1.1714 C   0  0  0  0  0  0  0  0  0  0  0  0
    1.2865    1.8279   -0.6725 S   0  0  0  0  0  0  0  0  0  0  0  0
    1.6032    0.1738    0.0691 C   0  0  0  0  0  0  0  0  0  0  0  0
    1.6085   -0.7725   -1.0652 C   0  0  0  0  0  0  0  0  0  0  0  0
    1.8360   -2.1980   -0.8766 C   0  0  2  0  0  0  0  0  0  0  0  0
    0.7215   -2.9146   -0.1924 N   0  0  0  0  0  0  0  0  0  0  0  0
    0.3163   -4.1886   -0.6935 C   0  0  0  0  0  0  0  0  0  0  0  0
    1.0624   -4.5723   -1.6683 O   0  0  0  0  0  0  0  0  0  0  0  0
   -0.7318   -5.0697   -0.3011 C   0  0  1  0  0  0  0  0  0  0  0  0
   -1.7001   -4.7383    0.6976 N   0  0  0  0  0  0  0  0  0  0  0  0
   -2.6364   -3.6385    0.5359 C   0  0  0  0  0  0  0  0  0  0  0  0
   -2.3792   -2.9177   -0.4391 O   0  0  0  0  0  0  0  0  0  0  0  0
   -3.7696   -3.4392    1.4737 C   0  0  1  0  0  0  0  0  0  0  0  0
   -4.4845   -2.2358    1.1594 N   0  0  0  0  0  0  0  0  0  0  0  0
   -5.6713   -1.7560    1.7694 C   0  0  0  0  0  0  0  0  0  0  0  0
   -6.2077   -2.4965    2.5981 O   0  0  0  0  0  0  0  0  0  0  0  0
   -4.7705   -4.6095    1.1837 C   0  0  0  0  0  0  0  0  0  0  0  0
   -5.2520   -4.5736   -0.2147 C   0  0  0  0  0  0  0  0  0  0  0  0
   -6.1947   -5.7332   -0.3904 C   0  0  0  0  0  0  0  0  0  0  0  0
   -6.4694   -6.5360    0.5107 O   0  0  0  0  0  0  0  0  0  0  0  0
   -6.7930   -5.8887   -1.6905 N   0  0  0  0  0  0  0  0  0  0  0  0
   -1.5801   -5.5522   -1.5027 C   0  0  0  0  0  0  0  0  0  0  0  0
   -0.7787   -6.2852   -2.4957 C   0  0  0  0  0  0  0  0  0  0  0  0
   -0.2531   -5.8112   -3.5142 O   0  0  0  0  0  0  0  0  0  0  0  0
   -0.5830   -7.6901   -2.2650 N   0  0  0  0  0  0  0  0  0  0  0  0
    3.1114   -2.6796   -0.3403 C   0  0  0  0  0  0  0  0  0  0  0  0
    3.0293   -3.4578    0.6788 O   0  0  0  0  0  0  0  0  0  0  0  0
    4.4271   -2.4183   -0.7948 N   0  0  0  0  0  0  0  0  0  0  0  0
    5.4922   -3.1216   -0.0950 C   0  0  0  0  0  0  0  0  0  0  0  0
    6.1026   -2.4373    1.0218 C   0  0  0  0  0  0  0  0  0  0  0  0
    5.6768   -2.4781    2.3360 C   0  0  0  0  0  0  0  0  0  0  0  0
    6.3540   -1.8063    3.3563 C   0  0  0  0  0  0  0  0  0  0  0  0
    7.4839   -1.0688    3.0951 C   0  0  0  0  0  0  0  0  0  0  0  0
    7.9213   -1.0175    1.7929 C   0  0  0  0  0  0  0  0  0  0  0  0
    7.2490   -1.6826    0.7893 C   0  0  0  0  0  0  0  0  0  0  0  0
    4.7297   -1.5670   -1.8872 C   0  0  0  0  0  0  0  0  0  0  0  0
    5.0094   -0.1628   -1.6799 C   0  0  0  0  0  0  0  0  0  0  0  0
    5.2007    0.5375   -2.7525 O   0  0  0  0  0  0  0  0  0  0  0  0
    5.1083    0.5589   -0.4838 N   0  0  0  0  0  0  0  0  0  0  0  0
    5.3952    2.0257   -0.6209 C   0  0  2  0  0  0  0  0  0  0  0  0
    6.8618    2.1015   -0.8247 C   0  0  0  0  0  0  0  0  0  0  0  0
    7.6669    1.1858   -0.5360 O   0  0  0  0  0  0  0  0  0  0  0  0
    7.4769    3.2790   -1.4026 N   0  0  0  0  0  0  0  0  0  0  0  0
    8.9141    3.2655   -1.5629 C   0  0  0  0  0  0  0  0  0  0  0  0
    9.4218    4.5170   -2.1573 C   0  0  0  0  0  0  0  0  0  0  0  0
    8.6813    5.4875   -2.4858 O   0  0  0  0  0  0  0  0  0  0  0  0
   10.8079    4.6560   -2.3788 N   0  0  0  0  0  0  0  0  0  0  0  0
    4.8793    2.6022    0.6408 C   0  0  0  0  0  0  0  0  0  0  0  0
    4.9669    4.0437    0.9285 C   0  0  0  0  0  0  0  0  0  0  0  0
    6.3415    4.6369    1.0365 C   0  0  0  0  0  0  0  0  0  0  0  0
    4.2601    4.2747    2.2795 C   0  0  0  0  0  0  0  0  0  0  0  0
   -5.4267    4.0889    0.0073 C   0  0  0  0  0  0  0  0  0  0  0  0
   -4.5685    5.2711   -0.1656 C   0  0  0  0  0  0  0  0  0  0  0  0
   -4.7211    6.3005    0.7601 C   0  0  0  0  0  0  0  0  0  0  0  0
   -4.0023    7.4655    0.6987 C   0  0  0  0  0  0  0  0  0  0  0  0
   -3.0768    7.6555   -0.3163 C   0  0  0  0  0  0  0  0  0  0  0  0
   -2.9022    6.6562   -1.2485 C   0  0  0  0  0  0  0  0  0  0  0  0
   -3.6538    5.4771   -1.1574 C   0  0  0  0  0  0  0  0  0  0  0  0
   -2.3178    8.8117   -0.4332 O   0  0  0  0  0  0  0  0  0  0  0  0
   -6.7710   -0.7856   -0.9974 C   0  0  0  0  0  0  0  0  0  0  0  0
   -8.8511   -1.5403   -1.4511 H   0  0  0  0  0  0  0  0  0  0  0  0
   -9.9567   -2.6399   -0.5165 H   0  0  0  0  0  0  0  0  0  0  0  0
  -10.0586   -0.8424   -0.3708 H   0  0  0  0  0  0  0  0  0  0  0  0
   -8.9610   -1.3694    1.5704 H   0  0  0  0  0  0  0  0  0  0  0  0
   -7.9768   -2.6889    0.7604 H   0  0  0  0  0  0  0  0  0  0  0  0
   -7.9456    0.3550    0.3285 H   0  0  0  0  0  0  0  0  0  0  0  0
   -6.9138   -0.1299    2.3346 H   0  0  0  0  0  0  0  0  0  0  0  0
   -4.4643    0.4383    0.6086 H   0  0  0  0  0  0  0  0  0  0  0  0
   -5.0081    3.7099    1.9951 H   0  0  0  0  0  0  0  0  0  0  0  0
   -2.9695    2.8109    1.8300 H   0  0  0  0  0  0  0  0  0  0  0  0
   -0.8989    2.9038    0.7604 H   0  0  0  0  0  0  0  0  0  0  0  0
   -1.2134    1.1525    0.5921 H   0  0  0  0  0  0  0  0  0  0  0  0
   -0.7389    1.0565   -1.6895 H   0  0  0  0  0  0  0  0  0  0  0  0
   -0.5842    2.8118   -1.9106 H   0  0  0  0  0  0  0  0  0  0  0  0
    2.5048    0.2676    0.6595 H   0  0  0  0  0  0  0  0  0  0  0  0
    0.7481    0.0143    0.7832 H   0  0  0  0  0  0  0  0  0  0  0  0
    2.1894   -0.3679   -1.9191 H   0  0  0  0  0  0  0  0  0  0  0  0
    0.5304   -0.7029   -1.4883 H   0  0  0  0  0  0  0  0  0  0  0  0
    1.8146   -2.6410   -1.9269 H   0  0  0  0  0  0  0  0  0  0  0  0
    0.2267   -2.5656    0.6093 H   0  0  0  0  0  0  0  0  0  0  0  0
   -0.2737   -6.0430    0.0550 H   0  0  0  0  0  0  0  0  0  0  0  0
   -1.8132   -5.2270    1.5913 H   0  0  0  0  0  0  0  0  0  0  0  0
   -3.5495   -3.5474    2.5214 H   0  0  0  0  0  0  0  0  0  0  0  0
   -4.1187   -1.6329    0.4097 H   0  0  0  0  0  0  0  0  0  0  0  0
   -5.5808   -4.4959    1.8915 H   0  0  0  0  0  0  0  0  0  0  0  0
   -4.2416   -5.5500    1.4535 H   0  0  0  0  0  0  0  0  0  0  0  0
   -5.8632   -3.6614   -0.3508 H   0  0  0  0  0  0  0  0  0  0  0  0
   -4.4580   -4.6523   -0.9779 H   0  0  0  0  0  0  0  0  0  0  0  0
   -7.3244   -5.0590   -2.0347 H   0  0  0  0  0  0  0  0  0  0  0  0
   -6.6913   -6.7810   -2.2393 H   0  0  0  0  0  0  0  0  0  0  0  0
   -2.1404   -4.6987   -1.9543 H   0  0  0  0  0  0  0  0  0  0  0  0
   -2.3742   -6.2414   -1.1305 H   0  0  0  0  0  0  0  0  0  0  0  0
   -1.3381   -8.3177   -1.9241 H   0  0  0  0  0  0  0  0  0  0  0  0
    0.3718   -8.1043   -2.4509 H   0  0  0  0  0  0  0  0  0  0  0  0
    6.2632   -3.4833   -0.8535 H   0  0  0  0  0  0  0  0  0  0  0  0
    5.1014   -4.1105    0.3032 H   0  0  0  0  0  0  0  0  0  0  0  0
    4.8160   -3.0282    2.6266 H   0  0  0  0  0  0  0  0  0  0  0  0
    5.9928   -1.8621    4.3745 H   0  0  0  0  0  0  0  0  0  0  0  0
    8.0203   -0.5455    3.8630 H   0  0  0  0  0  0  0  0  0  0  0  0
    8.7937   -0.4610    1.5270 H   0  0  0  0  0  0  0  0  0  0  0  0
    7.6303   -1.6130   -0.2273 H   0  0  0  0  0  0  0  0  0  0  0  0
    5.6524   -1.9832   -2.4489 H   0  0  0  0  0  0  0  0  0  0  0  0
    3.9518   -1.6620   -2.7077 H   0  0  0  0  0  0  0  0  0  0  0  0
    4.9873    0.1102    0.4296 H   0  0  0  0  0  0  0  0  0  0  0  0
    4.9017    2.3669   -1.5651 H   0  0  0  0  0  0  0  0  0  0  0  0
    6.9193    4.0974   -1.7117 H   0  0  0  0  0  0  0  0  0  0  0  0
    9.1833    2.4083   -2.2190 H   0  0  0  0  0  0  0  0  0  0  0  0
    9.4020    3.1161   -0.5834 H   0  0  0  0  0  0  0  0  0  0  0  0
   11.1661    5.1112   -3.2408 H   0  0  0  0  0  0  0  0  0  0  0  0
   11.4519    4.2738   -1.6233 H   0  0  0  0  0  0  0  0  0  0  0  0
    3.8030    2.2589    0.7490 H   0  0  0  0  0  0  0  0  0  0  0  0
    5.3944    2.0194    1.4987 H   0  0  0  0  0  0  0  0  0  0  0  0
    4.3761    4.5966    0.1365 H   0  0  0  0  0  0  0  0  0  0  0  0
    7.1372    3.8905    1.2147 H   0  0  0  0  0  0  0  0  0  0  0  0
    6.3868    5.3308    1.9507 H   0  0  0  0  0  0  0  0  0  0  0  0
    6.5178    5.3298    0.2025 H   0  0  0  0  0  0  0  0  0  0  0  0
    3.1868    4.5018    2.0581 H   0  0  0  0  0  0  0  0  0  0  0  0
    4.7400    5.1509    2.7548 H   0  0  0  0  0  0  0  0  0  0  0  0
    4.3986    3.3654    2.8708 H   0  0  0  0  0  0  0  0  0  0  0  0
   -6.4120    4.4437    0.3820 H   0  0  0  0  0  0  0  0  0  0  0  0
   -5.5786    3.6565   -0.9927 H   0  0  0  0  0  0  0  0  0  0  0  0
   -5.4414    6.1910    1.5776 H   0  0  0  0  0  0  0  0  0  0  0  0
   -4.1266    8.2636    1.4214 H   0  0  0  0  0  0  0  0  0  0  0  0
   -2.1838    6.7887   -2.0475 H   0  0  0  0  0  0  0  0  0  0  0  0
   -3.4658    4.7601   -1.9328 H   0  0  0  0  0  0  0  0  0  0  0  0
   -2.7695    9.6413   -0.8224 H   0  0  0  0  0  0  0  0  0  0  0  0
   -6.8386   -1.7978   -1.4230 H   0  0  0  0  0  0  0  0  0  0  0  0
   -5.6913   -0.4682   -0.9371 H   0  0  0  0  0  0  0  0  0  0  0  0
   -7.1983   -0.0367   -1.7313 H   0  0  0  0  0  0  0  0  0  0  0  0
  1  2  1  0
  2  3  1  0
  3  4  1  0
  4  5  1  0
  5  6  1  0
  6  7  2  0
  6  8  1  0
  8  9  1  0
  9 10  1  0
 10 11  2  0
 10 12  1  0
 12 13  1  0
 13 14  1  0
 14 15  1  0
 15 16  1  0
 16 17  1  0
 17 18  1  0
 18 19  1  0
 19 20  2  0
 19 21  1  0
 21 22  1  0
 22 23  1  0
 23 24  2  0
 23 25  1  0
 25 26  1  0
 26 27  1  0
 27 28  2  0
 25 29  1  0
 29 30  1  0
 30 31  1  0
 31 32  2  0
 31 33  1  0
 21 34  1  0
 34 35  1  0
 35 36  2  0
 35 37  1  0
 17 38  1  0
 38 39  2  0
 38 40  1  0
 40 41  1  0
 41 42  1  0
 42 43  2  0
 43 44  1  0
 44 45  2  0
 45 46  1  0
 46 47  2  0
 40 48  1  0
 48 49  1  0
 49 50  2  0
 49 51  1  0
 51 52  1  0
 52 53  1  0
 53 54  2  0
 53 55  1  0
 55 56  1  0
 56 57  1  0
 57 58  2  0
 57 59  1  0
 52 60  1  0
 60 61  1  0
 61 62  1  0
 61 63  1  0
  8 64  1  0
 64 65  1  0
 65 66  2  0
 66 67  1  0
 67 68  2  0
 68 69  1  0
 69 70  2  0
 68 71  1  0
  3 72  1  0
 27  4  1  0
 47 42  1  0
 70 65  1  0
  1 73  1  0
  1 74  1  0
  1 75  1  0
  2 76  1  0
  2 77  1  0
  3 78  1  6
  4 79  1  1
  5 80  1  0
  8 81  1  1
  9 82  1  0
 12 83  1  0
 12 84  1  0
 13 85  1  0
 13 86  1  0
 15 87  1  0
 15 88  1  0
 16 89  1  0
 16 90  1  0
 17 91  1  6
 18 92  1  0
 21 93  1  1
 22 94  1  0
 25 95  1  1
 26 96  1  0
 29 97  1  0
 29 98  1  0
 30 99  1  0
 30100  1  0
 33101  1  0
 33102  1  0
 34103  1  0
 34104  1  0
 37105  1  0
 37106  1  0
 41107  1  0
 41108  1  0
 43109  1  0
 44110  1  0
 45111  1  0
 46112  1  0
 47113  1  0
 48114  1  0
 48115  1  0
 51116  1  0
 52117  1  6
 55118  1  0
 56119  1  0
 56120  1  0
 59121  1  0
 59122  1  0
 60123  1  0
 60124  1  0
 61125  1  0
 62126  1  0
 62127  1  0
 62128  1  0
 63129  1  0
 63130  1  0
 63131  1  0
 64132  1  0
 64133  1  0
 66134  1  0
 67135  1  0
 69136  1  0
 70137  1  0
 71138  1  0
 72139  1  0
 72140  1  0
 72141  1  0
M  END
>  <Ligand ID>  (1) 
LIG0001556

>  <Ligand>  (1) 
CHEMBL3354589

>  <SMILES>  (1) 
CC[C@@H]([C@@H]1NC(=O)[C@@H](NC(=O)CCSCC[C@H](NC(=O)[C@@H](NC(=O)[C@@H](NC1=O)CCC(=O)N)CC(=O)N)C(=O)N(Cc1ccccc1)CC(=O)N[C@H](C(=O)NCC(=O)N)CC(C)C)Cc1ccc(cc1)O)C

>  <CID>  (1) 
118720279.0

>  <ChEMBL ID>  (1) 
nan

>  <InChiKey>  (1) 
KPLJKIPJEXXIEN-OTQBRQNKSA-N

>  <InChi>  (1) 
InChI=1S/C48H69N11O12S/c1-5-28(4)42-47(70)55-32(15-16-37(49)61)44(67)57-36(23-38(50)62)45(68)56-33(17-19-72-20-18-40(64)53-35(46(69)58-42)22-29-11-13-31(60)14-12-29)48(71)59(25-30-9-7-6-8-10-30)26-41(65)54-34(21-27(2)3)43(66)52-24-39(51)63/h6-14,27-28,32-36,42,60H,5,15-26H2,1-4H3,(H2,49,61)(H2,50,62)(H2,51,63)(H,52,66)(H,53,64)(H,54,65)(H,55,70)(H,56,68)(H,57,67)(H,58,69)/t28-,32-,33-,34-,35-,36-,42-/m0/s1

>  <IUPAC Name>  (1) 
(4S,7S,10S,13S,16S)-7-(2-amino-2-oxoethyl)-N-[2-[[(2S)-1-[(2-amino-2-oxoethyl)amino]-4-methyl-1-oxopentan-2-yl]amino]-2-oxoethyl]-10-(3-amino-3-oxopropyl)-N-benzyl-13-[(2S)-butan-2-yl]-16-[(4-hydroxyphenyl)methyl]-6,9,12,15,18-pentaoxo-1-thia-5,8,11,14,17-pentazacycloicosane-4-carboxamide

$$$$
