
     RDKit          3D

142144  0  0  0  0  0  0  0  0999 V2000
   -9.3879   -0.3437   -3.3550 C   0  0  0  0  0  0  0  0  0  0  0  0
   -8.7745   -0.1562   -1.9868 C   0  0  0  0  0  0  0  0  0  0  0  0
   -7.6811   -1.1779   -1.8061 C   0  0  1  0  0  0  0  0  0  0  0  0
   -7.0051   -1.0828   -0.4533 C   0  0  2  0  0  0  0  0  0  0  0  0
   -6.4014    0.2457   -0.2397 N   0  0  0  0  0  0  0  0  0  0  0  0
   -6.8144    1.0025    0.8921 C   0  0  0  0  0  0  0  0  0  0  0  0
   -7.7159    0.4592    1.5767 O   0  0  0  0  0  0  0  0  0  0  0  0
   -6.3188    2.3048    1.3249 C   0  0  1  0  0  0  0  0  0  0  0  0
   -5.2202    2.9031    0.6016 N   0  0  0  0  0  0  0  0  0  0  0  0
   -3.9804    3.0373    1.2842 C   0  0  0  0  0  0  0  0  0  0  0  0
   -3.9016    2.5152    2.4036 O   0  0  0  0  0  0  0  0  0  0  0  0
   -2.7751    3.7442    0.7734 C   0  0  0  0  0  0  0  0  0  0  0  0
   -1.6812    3.4546    1.8093 C   0  0  0  0  0  0  0  0  0  0  0  0
   -1.1355    1.7137    1.6298 S   0  0  0  0  0  0  0  0  0  0  0  0
    0.1058    1.7802   -0.1644 S   0  0  0  0  0  0  0  0  0  0  0  0
    1.7925    2.0596    0.5425 C   0  0  0  0  0  0  0  0  0  0  0  0
    2.3270    0.7862    1.1001 C   0  0  2  0  0  0  0  0  0  0  0  0
    1.2854    0.0224    1.8522 N   0  0  0  0  0  0  0  0  0  0  0  0
    0.5847   -1.0608    1.2077 C   0  0  0  0  0  0  0  0  0  0  0  0
    0.8925   -1.2270    0.0212 O   0  0  0  0  0  0  0  0  0  0  0  0
   -0.4290   -1.8823    1.9432 C   0  0  1  0  0  0  0  0  0  0  0  0
   -1.1643   -2.6130    0.8935 N   0  0  0  0  0  0  0  0  0  0  0  0
   -2.4284   -2.0969    0.5394 C   0  0  0  0  0  0  0  0  0  0  0  0
   -2.7980   -1.0881    1.1925 O   0  0  0  0  0  0  0  0  0  0  0  0
   -3.3714   -2.5770   -0.4853 C   0  0  1  0  0  0  0  0  0  0  0  0
   -4.5653   -1.6911   -0.4469 N   0  0  0  0  0  0  0  0  0  0  0  0
   -5.8983   -2.1137   -0.4997 C   0  0  0  0  0  0  0  0  0  0  0  0
   -6.1050   -3.3301   -0.5881 O   0  0  0  0  0  0  0  0  0  0  0  0
   -2.8474   -2.3858   -1.9144 C   0  0  0  0  0  0  0  0  0  0  0  0
   -1.5787   -3.0773   -2.2415 C   0  0  0  0  0  0  0  0  0  0  0  0
   -1.2328   -2.8246   -3.7022 C   0  0  0  0  0  0  0  0  0  0  0  0
   -1.9515   -2.1593   -4.4597 O   0  0  0  0  0  0  0  0  0  0  0  0
    0.0118   -3.4372   -4.1081 N   0  0  0  0  0  0  0  0  0  0  0  0
    0.1315   -2.7922    2.9664 C   0  0  0  0  0  0  0  0  0  0  0  0
    1.0730   -3.8102    2.5337 C   0  0  0  0  0  0  0  0  0  0  0  0
    1.5246   -4.6346    3.3826 O   0  0  0  0  0  0  0  0  0  0  0  0
    1.5636   -3.9884    1.2021 N   0  0  0  0  0  0  0  0  0  0  0  0
    3.3535    0.9836    2.1232 C   0  0  0  0  0  0  0  0  0  0  0  0
    3.0770    0.3072    3.2138 O   0  0  0  0  0  0  0  0  0  0  0  0
    4.5237    1.7177    2.1802 N   0  0  0  0  0  0  0  0  0  0  0  0
    5.1404    2.5923    1.2376 C   0  0  0  0  0  0  0  0  0  0  0  0
    6.0008    1.8823    0.2733 C   0  0  0  0  0  0  0  0  0  0  0  0
    6.7073    2.6057   -0.5021 O   0  0  0  0  0  0  0  0  0  0  0  0
    6.1135    0.4920    0.1280 N   0  0  0  0  0  0  0  0  0  0  0  0
    7.0960   -0.0259   -0.8851 C   0  0  2  0  0  0  0  0  0  0  0  0
    6.6172    0.3632   -2.2362 C   0  0  0  0  0  0  0  0  0  0  0  0
    5.4161    0.7220   -2.4568 O   0  0  0  0  0  0  0  0  0  0  0  0
    7.4812    0.3702   -3.3622 N   0  0  0  0  0  0  0  0  0  0  0  0
    7.1388    0.7415   -4.7039 C   0  0  0  0  0  0  0  0  0  0  0  0
    6.0565   -0.0109   -5.3380 C   0  0  0  0  0  0  0  0  0  0  0  0
    5.3846   -0.9358   -4.8450 O   0  0  0  0  0  0  0  0  0  0  0  0
    5.7240    0.3550   -6.6952 N   0  0  0  0  0  0  0  0  0  0  0  0
    7.2406   -1.4419   -0.5524 C   0  0  0  0  0  0  0  0  0  0  0  0
    8.1317   -2.3560   -1.2960 C   0  0  0  0  0  0  0  0  0  0  0  0
    8.0087   -3.7414   -0.5979 C   0  0  0  0  0  0  0  0  0  0  0  0
    7.7212   -2.5822   -2.7275 C   0  0  0  0  0  0  0  0  0  0  0  0
    5.2618    1.6318    3.4880 C   0  0  0  0  0  0  0  0  0  0  0  0
    6.2026    0.4756    3.4107 C   0  0  0  0  0  0  0  0  0  0  0  0
    6.8903    0.3846    4.7526 C   0  0  0  0  0  0  0  0  0  0  0  0
    8.0580    1.0719    5.0146 C   0  0  0  0  0  0  0  0  0  0  0  0
    8.5977    0.9018    6.2842 C   0  0  0  0  0  0  0  0  0  0  0  0
    7.9662    0.0758    7.2106 C   0  0  0  0  0  0  0  0  0  0  0  0
    6.8014   -0.6050    6.9343 C   0  0  0  0  0  0  0  0  0  0  0  0
    6.2671   -0.4332    5.6700 C   0  0  0  0  0  0  0  0  0  0  0  0
   -7.4324    3.3343    1.4681 C   0  0  0  0  0  0  0  0  0  0  0  0
   -8.1789    3.5789    0.2354 C   0  0  0  0  0  0  0  0  0  0  0  0
   -9.3507    2.8774   -0.0030 C   0  0  0  0  0  0  0  0  0  0  0  0
  -10.1112    3.0433   -1.1216 C   0  0  0  0  0  0  0  0  0  0  0  0
   -9.6891    3.9619   -2.0712 C   0  0  0  0  0  0  0  0  0  0  0  0
   -8.5194    4.6994   -1.8916 C   0  0  0  0  0  0  0  0  0  0  0  0
   -7.8045    4.4795   -0.7398 C   0  0  0  0  0  0  0  0  0  0  0  0
  -10.4180    4.1836   -3.2403 O   0  0  0  0  0  0  0  0  0  0  0  0
   -8.3265   -2.5432   -1.8939 C   0  0  0  0  0  0  0  0  0  0  0  0
   -8.7148   -0.9985   -3.9431 H   0  0  0  0  0  0  0  0  0  0  0  0
   -9.5810    0.6207   -3.8696 H   0  0  0  0  0  0  0  0  0  0  0  0
  -10.3375   -0.9281   -3.2051 H   0  0  0  0  0  0  0  0  0  0  0  0
   -9.5652   -0.2417   -1.2223 H   0  0  0  0  0  0  0  0  0  0  0  0
   -8.3708    0.8833   -1.9225 H   0  0  0  0  0  0  0  0  0  0  0  0
   -6.8889   -1.0955   -2.5583 H   0  0  0  0  0  0  0  0  0  0  0  0
   -7.7657   -1.3222    0.3069 H   0  0  0  0  0  0  0  0  0  0  0  0
   -5.7126    0.6790   -0.8383 H   0  0  0  0  0  0  0  0  0  0  0  0
   -5.9980    2.1286    2.4137 H   0  0  0  0  0  0  0  0  0  0  0  0
   -5.2330    3.2378   -0.3574 H   0  0  0  0  0  0  0  0  0  0  0  0
   -2.9197    4.8411    0.7767 H   0  0  0  0  0  0  0  0  0  0  0  0
   -2.4316    3.3440   -0.1904 H   0  0  0  0  0  0  0  0  0  0  0  0
   -2.0301    3.5749    2.8437 H   0  0  0  0  0  0  0  0  0  0  0  0
   -0.8110    4.0850    1.5976 H   0  0  0  0  0  0  0  0  0  0  0  0
    2.4269    2.4352   -0.2812 H   0  0  0  0  0  0  0  0  0  0  0  0
    1.6783    2.8511    1.2903 H   0  0  0  0  0  0  0  0  0  0  0  0
    2.6321    0.1368    0.2698 H   0  0  0  0  0  0  0  0  0  0  0  0
    1.0213    0.2077    2.8031 H   0  0  0  0  0  0  0  0  0  0  0  0
   -1.0649   -1.1371    2.4584 H   0  0  0  0  0  0  0  0  0  0  0  0
   -0.8459   -3.4474    0.4290 H   0  0  0  0  0  0  0  0  0  0  0  0
   -3.6254   -3.6284   -0.3452 H   0  0  0  0  0  0  0  0  0  0  0  0
   -4.3682   -0.7004   -0.3734 H   0  0  0  0  0  0  0  0  0  0  0  0
   -3.6470   -2.7028   -2.6433 H   0  0  0  0  0  0  0  0  0  0  0  0
   -2.7586   -1.2752   -2.0792 H   0  0  0  0  0  0  0  0  0  0  0  0
   -1.5530   -4.1365   -1.9940 H   0  0  0  0  0  0  0  0  0  0  0  0
   -0.7172   -2.5768   -1.7078 H   0  0  0  0  0  0  0  0  0  0  0  0
    0.0557   -3.8423   -5.0766 H   0  0  0  0  0  0  0  0  0  0  0  0
    0.8302   -3.4657   -3.4436 H   0  0  0  0  0  0  0  0  0  0  0  0
   -0.7109   -3.1722    3.5997 H   0  0  0  0  0  0  0  0  0  0  0  0
    0.7050   -2.1295    3.6884 H   0  0  0  0  0  0  0  0  0  0  0  0
    2.3242   -3.4003    0.8094 H   0  0  0  0  0  0  0  0  0  0  0  0
    1.1321   -4.7452    0.6246 H   0  0  0  0  0  0  0  0  0  0  0  0
    4.3666    3.2155    0.7036 H   0  0  0  0  0  0  0  0  0  0  0  0
    5.8084    3.3112    1.8203 H   0  0  0  0  0  0  0  0  0  0  0  0
    5.5396   -0.1306    0.6916 H   0  0  0  0  0  0  0  0  0  0  0  0
    8.0189    0.5971   -0.6832 H   0  0  0  0  0  0  0  0  0  0  0  0
    8.4871    0.0933   -3.1540 H   0  0  0  0  0  0  0  0  0  0  0  0
    6.8981    1.8512   -4.7366 H   0  0  0  0  0  0  0  0  0  0  0  0
    8.0970    0.6548   -5.3182 H   0  0  0  0  0  0  0  0  0  0  0  0
    5.1839    1.2171   -6.9237 H   0  0  0  0  0  0  0  0  0  0  0  0
    6.0354   -0.2680   -7.4976 H   0  0  0  0  0  0  0  0  0  0  0  0
    7.6042   -1.5000    0.5407 H   0  0  0  0  0  0  0  0  0  0  0  0
    6.1956   -1.9052   -0.5010 H   0  0  0  0  0  0  0  0  0  0  0  0
    9.1881   -2.0228   -1.2322 H   0  0  0  0  0  0  0  0  0  0  0  0
    9.0326   -4.1207   -0.4788 H   0  0  0  0  0  0  0  0  0  0  0  0
    7.4753   -3.6125    0.3373 H   0  0  0  0  0  0  0  0  0  0  0  0
    7.3982   -4.3930   -1.2807 H   0  0  0  0  0  0  0  0  0  0  0  0
    8.4817   -2.2182   -3.4244 H   0  0  0  0  0  0  0  0  0  0  0  0
    7.6843   -3.7118   -2.9039 H   0  0  0  0  0  0  0  0  0  0  0  0
    6.6939   -2.2144   -2.9240 H   0  0  0  0  0  0  0  0  0  0  0  0
    4.4857    1.4456    4.2461 H   0  0  0  0  0  0  0  0  0  0  0  0
    5.7875    2.5904    3.6763 H   0  0  0  0  0  0  0  0  0  0  0  0
    5.6660   -0.4469    3.1487 H   0  0  0  0  0  0  0  0  0  0  0  0
    7.0591    0.6380    2.6949 H   0  0  0  0  0  0  0  0  0  0  0  0
    8.5276    1.7049    4.2686 H   0  0  0  0  0  0  0  0  0  0  0  0
    9.5114    1.4008    6.5879 H   0  0  0  0  0  0  0  0  0  0  0  0
    8.3845   -0.0565    8.2131 H   0  0  0  0  0  0  0  0  0  0  0  0
    6.2904   -1.2528    7.6235 H   0  0  0  0  0  0  0  0  0  0  0  0
    5.3421   -0.9733    5.4285 H   0  0  0  0  0  0  0  0  0  0  0  0
   -6.9673    4.2738    1.8437 H   0  0  0  0  0  0  0  0  0  0  0  0
   -8.0744    2.9734    2.3055 H   0  0  0  0  0  0  0  0  0  0  0  0
   -9.7166    2.1380    0.7289 H   0  0  0  0  0  0  0  0  0  0  0  0
  -11.0336    2.4738   -1.2692 H   0  0  0  0  0  0  0  0  0  0  0  0
   -8.2255    5.4006   -2.6561 H   0  0  0  0  0  0  0  0  0  0  0  0
   -6.8973    5.0490   -0.5939 H   0  0  0  0  0  0  0  0  0  0  0  0
  -11.2803    4.7238   -3.1221 H   0  0  0  0  0  0  0  0  0  0  0  0
   -9.2964   -2.4911   -2.4460 H   0  0  0  0  0  0  0  0  0  0  0  0
   -7.6353   -3.2748   -2.3979 H   0  0  0  0  0  0  0  0  0  0  0  0
   -8.5475   -2.8748   -0.8621 H   0  0  0  0  0  0  0  0  0  0  0  0
  1  2  1  0
  2  3  1  0
  3  4  1  0
  4  5  1  0
  5  6  1  0
  6  7  2  0
  6  8  1  0
  8  9  1  0
  9 10  1  0
 10 11  2  0
 10 12  1  0
 12 13  1  0
 13 14  1  0
 14 15  1  0
 15 16  1  0
 16 17  1  0
 17 18  1  0
 18 19  1  0
 19 20  2  0
 19 21  1  0
 21 22  1  0
 22 23  1  0
 23 24  2  0
 23 25  1  0
 25 26  1  0
 26 27  1  0
 27 28  2  0
 25 29  1  0
 29 30  1  0
 30 31  1  0
 31 32  2  0
 31 33  1  0
 21 34  1  0
 34 35  1  0
 35 36  2  0
 35 37  1  0
 17 38  1  0
 38 39  2  0
 38 40  1  0
 40 41  1  0
 41 42  1  0
 42 43  2  0
 42 44  1  0
 44 45  1  0
 45 46  1  0
 46 47  2  0
 46 48  1  0
 48 49  1  0
 49 50  1  0
 50 51  2  0
 50 52  1  0
 45 53  1  0
 53 54  1  0
 54 55  1  0
 54 56  1  0
 40 57  1  0
 57 58  1  0
 58 59  1  0
 59 60  2  0
 60 61  1  0
 61 62  2  0
 62 63  1  0
 63 64  2  0
  8 65  1  0
 65 66  1  0
 66 67  2  0
 67 68  1  0
 68 69  2  0
 69 70  1  0
 70 71  2  0
 69 72  1  0
  3 73  1  0
 27  4  1  0
 64 59  1  0
 71 66  1  0
  1 74  1  0
  1 75  1  0
  1 76  1  0
  2 77  1  0
  2 78  1  0
  3 79  1  6
  4 80  1  1
  5 81  1  0
  8 82  1  1
  9 83  1  0
 12 84  1  0
 12 85  1  0
 13 86  1  0
 13 87  1  0
 16 88  1  0
 16 89  1  0
 17 90  1  6
 18 91  1  0
 21 92  1  1
 22 93  1  0
 25 94  1  1
 26 95  1  0
 29 96  1  0
 29 97  1  0
 30 98  1  0
 30 99  1  0
 33100  1  0
 33101  1  0
 34102  1  0
 34103  1  0
 37104  1  0
 37105  1  0
 41106  1  0
 41107  1  0
 44108  1  0
 45109  1  1
 48110  1  0
 49111  1  0
 49112  1  0
 52113  1  0
 52114  1  0
 53115  1  0
 53116  1  0
 54117  1  0
 55118  1  0
 55119  1  0
 55120  1  0
 56121  1  0
 56122  1  0
 56123  1  0
 57124  1  0
 57125  1  0
 58126  1  0
 58127  1  0
 60128  1  0
 61129  1  0
 62130  1  0
 63131  1  0
 64132  1  0
 65133  1  0
 65134  1  0
 67135  1  0
 68136  1  0
 70137  1  0
 71138  1  0
 72139  1  0
 73140  1  0
 73141  1  0
 73142  1  0
M  END
>  <Ligand ID>  (1) 
LIG0001644

>  <Ligand>  (1) 
CHEMBL3353953

>  <SMILES>  (1) 
CC[C@@H]([C@@H]1NC(=O)[C@@H](NC(=O)CCSSC[C@H](NC(=O)[C@@H](NC(=O)[C@@H](NC1=O)CCC(=O)N)CC(=O)N)C(=O)N(CC(=O)N[C@H](C(=O)NCC(=O)N)CC(C)C)CCc1ccccc1)Cc1ccc(cc1)O)C

>  <CID>  (1) 
118719842.0

>  <ChEMBL ID>  (1) 
nan

>  <InChiKey>  (1) 
HRLOWUYUFGNHNY-OTQBRQNKSA-N

>  <InChi>  (1) 
InChI=1S/C48H69N11O12S2/c1-5-28(4)42-47(70)55-32(15-16-37(49)61)44(67)56-35(23-38(50)62)45(68)57-36(26-73-72-20-18-40(64)53-34(46(69)58-42)22-30-11-13-31(60)14-12-30)48(71)59(19-17-29-9-7-6-8-10-29)25-41(65)54-33(21-27(2)3)43(66)52-24-39(51)63/h6-14,27-28,32-36,42,60H,5,15-26H2,1-4H3,(H2,49,61)(H2,50,62)(H2,51,63)(H,52,66)(H,53,64)(H,54,65)(H,55,70)(H,56,67)(H,57,68)(H,58,69)/t28-,32-,33-,34-,35-,36-,42-/m0/s1

>  <IUPAC Name>  (1) 
(4R,7S,10S,13S,16S)-7-(2-amino-2-oxoethyl)-N-[2-[[(2S)-1-[(2-amino-2-oxoethyl)amino]-4-methyl-1-oxopentan-2-yl]amino]-2-oxoethyl]-10-(3-amino-3-oxopropyl)-13-[(2S)-butan-2-yl]-16-[(4-hydroxyphenyl)methyl]-6,9,12,15,18-pentaoxo-N-(2-phenylethyl)-1,2-dithia-5,8,11,14,17-pentazacycloicosane-4-carboxamide

$$$$
