
     RDKit          3D

 21 20  0  0  0  0  0  0  0  0999 V2000
    2.7185    0.5575    0.0571 C   0  0  0  0  0  0  0  0  0  0  0  0
    2.0454   -0.7413    0.3034 C   0  0  0  0  0  0  0  0  0  0  0  0
    0.6871   -0.9035   -0.3285 C   0  0  0  0  0  0  0  0  0  0  0  0
   -0.2946    0.1263    0.1509 C   0  0  0  0  0  0  0  0  0  0  0  0
   -1.6215   -0.1185   -0.5370 C   0  0  0  0  0  0  0  0  0  0  0  0
   -2.1027   -1.4041   -0.2311 O   0  0  0  0  0  0  0  0  0  0  0  0
   -2.6296    0.8748   -0.0270 C   0  0  0  0  0  0  0  0  0  0  0  0
    3.1349    0.5323   -0.9845 H   0  0  0  0  0  0  0  0  0  0  0  0
    2.0462    1.4344    0.1807 H   0  0  0  0  0  0  0  0  0  0  0  0
    3.5481    0.6232    0.8180 H   0  0  0  0  0  0  0  0  0  0  0  0
    2.7175   -1.5608   -0.0055 H   0  0  0  0  0  0  0  0  0  0  0  0
    1.8884   -0.8245    1.4081 H   0  0  0  0  0  0  0  0  0  0  0  0
    0.6980   -0.9422   -1.4154 H   0  0  0  0  0  0  0  0  0  0  0  0
    0.3071   -1.8845    0.0507 H   0  0  0  0  0  0  0  0  0  0  0  0
   -0.0004    1.1668   -0.0283 H   0  0  0  0  0  0  0  0  0  0  0  0
   -0.5021    0.0005    1.2518 H   0  0  0  0  0  0  0  0  0  0  0  0
   -1.4552   -0.0811   -1.6260 H   0  0  0  0  0  0  0  0  0  0  0  0
   -2.6004   -1.3817    0.6248 H   0  0  0  0  0  0  0  0  0  0  0  0
   -3.4268    1.0511   -0.7922 H   0  0  0  0  0  0  0  0  0  0  0  0
   -2.0823    1.8139    0.2294 H   0  0  0  0  0  0  0  0  0  0  0  0
   -3.0756    0.4346    0.9007 H   0  0  0  0  0  0  0  0  0  0  0  0
  1  2  1  0
  2  3  1  0
  3  4  1  0
  4  5  1  0
  5  6  1  0
  5  7  1  0
  1  8  1  0
  1  9  1  0
  1 10  1  0
  2 11  1  0
  2 12  1  0
  3 13  1  0
  3 14  1  0
  4 15  1  0
  4 16  1  0
  5 17  1  0
  6 18  1  0
  7 19  1  0
  7 20  1  0
  7 21  1  0
M  END
>  <Ligand ID>  (1) 
LIG0005019

>  <Ligand>  (1) 
hexan-2-ol

>  <SMILES>  (1) 
CCCCC(O)C

>  <CID>  (1) 
12297.0

>  <ChEMBL ID>  (1) 
nan

>  <InChiKey>  (1) 
QNVRIHYSUZMSGM-UHFFFAOYSA-N

>  <InChi>  (1) 
InChI=1S/C6H14O/c1-3-4-5-6(2)7/h6-7H,3-5H2,1-2H3

>  <IUPAC Name>  (1) 
hexan-2-ol

$$$$
