
     RDKit          3D

 26 27  0  0  0  0  0  0  0  0999 V2000
   -3.8771    0.9476    1.1178 N   0  0  0  0  0  0  0  0  0  0  0  0
   -3.2541    0.3782   -0.0697 C   0  0  0  0  0  0  0  0  0  0  0  0
   -1.7517    0.5176    0.1007 C   0  0  1  0  0  0  0  0  0  0  0  0
   -1.2523   -0.2167    1.3384 C   0  0  0  0  0  0  0  0  0  0  0  0
   -0.9503   -0.7048   -0.0696 C   0  0  2  0  0  0  0  0  0  0  0  0
    0.4898   -0.6652   -0.4016 C   0  0  0  0  0  0  0  0  0  0  0  0
    1.0360   -1.7180   -1.1303 C   0  0  0  0  0  0  0  0  0  0  0  0
    2.3702   -1.7584   -1.4814 C   0  0  0  0  0  0  0  0  0  0  0  0
    3.1663   -0.7021   -1.0809 C   0  0  0  0  0  0  0  0  0  0  0  0
    2.6680    0.3714   -0.3522 C   0  0  0  0  0  0  0  0  0  0  0  0
    1.3335    0.3613   -0.0296 C   0  0  0  0  0  0  0  0  0  0  0  0
    3.5396    1.4586    0.0470 C   0  0  0  0  0  0  0  0  0  0  0  0
    4.2537    2.3665    0.3945 C   0  0  0  0  0  0  0  0  0  0  0  0
   -4.8791    1.1762    0.9730 H   0  0  0  0  0  0  0  0  0  0  0  0
   -3.6725    0.3932    1.9553 H   0  0  0  0  0  0  0  0  0  0  0  0
   -3.6477    0.8139   -0.9864 H   0  0  0  0  0  0  0  0  0  0  0  0
   -3.5187   -0.7157   -0.0621 H   0  0  0  0  0  0  0  0  0  0  0  0
   -1.3601    1.5431   -0.0247 H   0  0  0  0  0  0  0  0  0  0  0  0
   -1.9311   -0.8536    1.9206 H   0  0  0  0  0  0  0  0  0  0  0  0
   -0.4674    0.2862    1.9264 H   0  0  0  0  0  0  0  0  0  0  0  0
   -1.4666   -1.5949   -0.4450 H   0  0  0  0  0  0  0  0  0  0  0  0
    0.4335   -2.5615   -1.4583 H   0  0  0  0  0  0  0  0  0  0  0  0
    2.7697   -2.5951   -2.0521 H   0  0  0  0  0  0  0  0  0  0  0  0
    4.1987   -0.7401   -1.3564 H   0  0  0  0  0  0  0  0  0  0  0  0
    0.8849    1.1697    0.5371 H   0  0  0  0  0  0  0  0  0  0  0  0
    4.8848    3.1807    0.6894 H   0  0  0  0  0  0  0  0  0  0  0  0
  1  2  1  0
  2  3  1  0
  3  4  1  0
  4  5  1  0
  5  6  1  0
  6  7  2  0
  7  8  1  0
  8  9  2  0
  9 10  1  0
 10 11  2  0
 10 12  1  0
 12 13  3  0
  5  3  1  0
 11  6  1  0
  1 14  1  0
  1 15  1  0
  2 16  1  0
  2 17  1  0
  3 18  1  6
  4 19  1  0
  4 20  1  0
  5 21  1  1
  7 22  1  0
  8 23  1  0
  9 24  1  0
 11 25  1  0
 13 26  1  0
M  END
>  <Ligand ID>  (1) 
LIG0002327

>  <Ligand>  (1) 
CHEMBL450178

>  <SMILES>  (1) 
NC[C@H]1C[C@@H]1c1cccc(c1)C#C

>  <CID>  (1) 
44572369.0

>  <ChEMBL ID>  (1) 
nan

>  <InChiKey>  (1) 
RCIAQMRKZLLLHU-VXGBXAGGSA-N

>  <InChi>  (1) 
InChI=1S/C12H13N/c1-2-9-4-3-5-10(6-9)12-7-11(12)8-13/h1,3-6,11-12H,7-8,13H2/t11-,12-/m1/s1

>  <IUPAC Name>  (1) 
[(1S,2S)-2-(3-ethynylphenyl)cyclopropyl]methanamine

$$$$
