
     RDKit          3D

 29 30  0  0  0  0  0  0  0  0999 V2000
   -2.2095    1.3431   -0.8158 C   0  0  0  0  0  0  0  0  0  0  0  0
   -1.1475    0.4517   -0.2178 C   0  0  0  0  0  0  0  0  0  0  0  0
   -1.1967   -0.8710   -0.9405 C   0  0  0  0  0  0  0  0  0  0  0  0
   -0.1494   -1.7637   -0.3385 C   0  0  0  0  0  0  0  0  0  0  0  0
    0.7164   -0.9250    0.5592 C   0  0  0  0  0  0  0  0  0  0  0  0
   -0.1259   -0.4970    1.7532 C   0  0  0  0  0  0  0  0  0  0  0  0
   -1.4189    0.1322    1.2456 C   0  0  0  0  0  0  0  0  0  0  0  0
    1.1690    0.3420   -0.1187 C   0  0  0  0  0  0  0  0  0  0  0  0
    0.0497    1.1186   -0.3500 O   0  0  0  0  0  0  0  0  0  0  0  0
    2.1711    1.0468    0.7639 C   0  0  0  0  0  0  0  0  0  0  0  0
    1.8240    0.0849   -1.4582 C   0  0  0  0  0  0  0  0  0  0  0  0
   -1.9725    2.4053   -0.5560 H   0  0  0  0  0  0  0  0  0  0  0  0
   -3.2341    1.0562   -0.5511 H   0  0  0  0  0  0  0  0  0  0  0  0
   -2.0600    1.2890   -1.9239 H   0  0  0  0  0  0  0  0  0  0  0  0
   -2.1869   -1.3219   -0.6719 H   0  0  0  0  0  0  0  0  0  0  0  0
   -1.1492   -0.7760   -2.0303 H   0  0  0  0  0  0  0  0  0  0  0  0
   -0.5827   -2.5696    0.3080 H   0  0  0  0  0  0  0  0  0  0  0  0
    0.4234   -2.2998   -1.1206 H   0  0  0  0  0  0  0  0  0  0  0  0
    1.5733   -1.5281    0.9145 H   0  0  0  0  0  0  0  0  0  0  0  0
    0.4775    0.2803    2.2827 H   0  0  0  0  0  0  0  0  0  0  0  0
   -0.3096   -1.3337    2.4407 H   0  0  0  0  0  0  0  0  0  0  0  0
   -2.2323   -0.6241    1.3343 H   0  0  0  0  0  0  0  0  0  0  0  0
   -1.6838    1.0202    1.8315 H   0  0  0  0  0  0  0  0  0  0  0  0
    2.4222    0.4351    1.6657 H   0  0  0  0  0  0  0  0  0  0  0  0
    3.1196    1.2730    0.2588 H   0  0  0  0  0  0  0  0  0  0  0  0
    1.7725    2.0176    1.1354 H   0  0  0  0  0  0  0  0  0  0  0  0
    1.0691    0.1187   -2.2777 H   0  0  0  0  0  0  0  0  0  0  0  0
    2.3777   -0.8620   -1.4621 H   0  0  0  0  0  0  0  0  0  0  0  0
    2.4934    0.9571   -1.6604 H   0  0  0  0  0  0  0  0  0  0  0  0
  1  2  1  0
  2  3  1  0
  3  4  1  0
  4  5  1  0
  5  6  1  0
  6  7  1  0
  5  8  1  0
  8  9  1  0
  8 10  1  0
  8 11  1  0
  7  2  1  0
  9  2  1  0
  1 12  1  0
  1 13  1  0
  1 14  1  0
  3 15  1  0
  3 16  1  0
  4 17  1  0
  4 18  1  0
  5 19  1  0
  6 20  1  0
  6 21  1  0
  7 22  1  0
  7 23  1  0
 10 24  1  0
 10 25  1  0
 10 26  1  0
 11 27  1  0
 11 28  1  0
 11 29  1  0
M  END
>  <Ligand ID>  (1) 
LIG0000028

>  <Ligand>  (1) 
cineole

>  <SMILES>  (1) 
CC12CCC(CC1)C(O2)(C)C

>  <CID>  (1) 
2758.0

>  <ChEMBL ID>  (1) 
nan

>  <InChiKey>  (1) 
WEEGYLXZBRQIMU-UHFFFAOYSA-N

>  <InChi>  (1) 
InChI=1S/C10H18O/c1-9(2)8-4-6-10(3,11-9)7-5-8/h8H,4-7H2,1-3H3

>  <IUPAC Name>  (1) 
1,3,3-trimethyl-2-oxabicyclo[2.2.2]octane

$$$$
