
     RDKit          3D

137142  0  0  0  0  0  0  0  0999 V2000
   -2.4155    6.0571    1.2861 N   0  0  0  0  0  0  0  0  0  0  0  0
   -2.8217    5.0750    2.2696 C   0  0  0  0  0  0  0  0  0  0  0  0
   -3.9539    4.2538    1.7847 C   0  0  0  0  0  0  0  0  0  0  0  0
   -3.7074    3.3754    0.5768 C   0  0  0  0  0  0  0  0  0  0  0  0
   -2.7472    2.3850    0.8618 N   0  0  0  0  0  0  0  0  0  0  0  0
   -3.2673    1.1523    1.5039 C   0  0  0  0  0  0  0  0  0  0  0  0
   -3.7721    0.1912    0.5364 C   0  0  0  0  0  0  0  0  0  0  0  0
   -4.1972   -0.9064    0.9242 O   0  0  0  0  0  0  0  0  0  0  0  0
   -3.8475    0.3782   -0.9003 N   0  0  0  0  0  0  0  0  0  0  0  0
   -4.3661   -0.6888   -1.6783 C   0  0  2  0  0  0  0  0  0  0  0  0
   -5.7480   -0.7673   -2.1050 C   0  0  0  0  0  0  0  0  0  0  0  0
   -6.8118   -0.7853   -1.0773 C   0  0  0  0  0  0  0  0  0  0  0  0
   -7.4923   -1.8849   -0.5740 C   0  0  0  0  0  0  0  0  0  0  0  0
   -8.3863   -1.4981    0.3527 N   0  0  0  0  0  0  0  0  0  0  0  0
   -8.3271   -0.1378    0.4917 C   0  0  0  0  0  0  0  0  0  0  0  0
   -7.3592    0.2912   -0.3883 C   0  0  0  0  0  0  0  0  0  0  0  0
   -7.1160    1.6448   -0.4343 C   0  0  0  0  0  0  0  0  0  0  0  0
   -7.7995    2.5618    0.3594 C   0  0  0  0  0  0  0  0  0  0  0  0
   -8.7565    2.0616    1.2181 C   0  0  0  0  0  0  0  0  0  0  0  0
   -9.0424    0.7139    1.3061 C   0  0  0  0  0  0  0  0  0  0  0  0
   -3.9096   -2.0549   -1.1801 C   0  0  0  0  0  0  0  0  0  0  0  0
   -4.6246   -3.0553   -1.2163 O   0  0  0  0  0  0  0  0  0  0  0  0
   -2.6010   -2.2369   -0.6591 N   0  0  0  0  0  0  0  0  0  0  0  0
   -2.0743   -3.4493   -0.0859 C   0  0  2  0  0  0  0  0  0  0  0  0
   -0.6887   -3.2851    0.4393 C   0  0  0  0  0  0  0  0  0  0  0  0
    0.4539   -2.7830   -0.8843 S   0  0  0  0  0  0  0  0  0  0  0  0
    2.3756   -2.5164   -0.0394 S   0  0  0  0  0  0  0  0  0  0  0  0
    2.4952   -0.7997    0.4861 C   0  0  0  0  0  0  0  0  0  0  0  0
    3.8289   -0.3859    1.0148 C   0  0  1  0  0  0  0  0  0  0  0  0
    3.7475    1.0395    1.4966 C   0  0  0  0  0  0  0  0  0  0  0  0
    4.0247    1.4091    2.6344 O   0  0  0  0  0  0  0  0  0  0  0  0
    3.3247    2.0969    0.6048 N   0  0  0  0  0  0  0  0  0  0  0  0
    3.1977    3.4835    1.1183 C   0  0  2  0  0  0  0  0  0  0  0  0
    1.7729    3.9186    0.8154 C   0  0  0  0  0  0  0  0  0  0  0  0
    1.2989    5.0149    1.0890 O   0  0  0  0  0  0  0  0  0  0  0  0
    0.8596    3.0219    0.1583 N   0  0  0  0  0  0  0  0  0  0  0  0
   -0.5528    3.4339   -0.0918 C   0  0  2  0  0  0  0  0  0  0  0  0
   -1.3757    2.4502    0.5975 C   0  0  0  0  0  0  0  0  0  0  0  0
   -0.7865    1.4490    1.0728 O   0  0  0  0  0  0  0  0  0  0  0  0
   -0.7276    3.5022   -1.5844 C   0  0  0  0  0  0  0  0  0  0  0  0
    0.2398    4.5183   -2.1026 C   0  0  0  0  0  0  0  0  0  0  0  0
    1.4985    4.1985   -2.4987 C   0  0  0  0  0  0  0  0  0  0  0  0
    2.3166    5.1989   -2.9719 C   0  0  0  0  0  0  0  0  0  0  0  0
    1.8897    6.5125   -3.0529 C   0  0  0  0  0  0  0  0  0  0  0  0
    0.6158    6.8552   -2.6549 C   0  0  0  0  0  0  0  0  0  0  0  0
   -0.1876    5.8431   -2.1845 C   0  0  0  0  0  0  0  0  0  0  0  0
    4.1683    4.2817    0.2939 C   0  0  0  0  0  0  0  0  0  0  0  0
    4.2877    5.6997    0.6696 C   0  0  0  0  0  0  0  0  0  0  0  0
    5.0804    6.5598   -0.0373 N   0  0  0  0  0  0  0  0  0  0  0  0
    5.0365    7.7590    0.5554 C   0  0  0  0  0  0  0  0  0  0  0  0
    4.2336    7.7259    1.6446 N   0  0  0  0  0  0  0  0  0  0  0  0
    3.7783    6.4368    1.6994 C   0  0  0  0  0  0  0  0  0  0  0  0
    4.3805   -1.2278    2.0252 N   0  0  0  0  0  0  0  0  0  0  0  0
    5.7778   -1.5303    1.9295 C   0  0  0  0  0  0  0  0  0  0  0  0
    6.4304   -1.0165    0.9596 O   0  0  0  0  0  0  0  0  0  0  0  0
    6.5005   -2.3979    2.8834 C   0  0  1  0  0  0  0  0  0  0  0  0
    6.3369   -3.8731    2.4614 C   0  0  0  0  0  0  0  0  0  0  0  0
    6.9308   -4.0025    1.0782 C   0  0  0  0  0  0  0  0  0  0  0  0
    6.1777   -3.8082   -0.0570 C   0  0  0  0  0  0  0  0  0  0  0  0
    6.7315   -3.9126   -1.3366 C   0  0  0  0  0  0  0  0  0  0  0  0
    8.0682   -4.2182   -1.4689 C   0  0  0  0  0  0  0  0  0  0  0  0
    8.8431   -4.4178   -0.3609 C   0  0  0  0  0  0  0  0  0  0  0  0
    8.2842   -4.3123    0.9185 C   0  0  0  0  0  0  0  0  0  0  0  0
    7.9295   -2.1005    2.6736 N   0  0  0  0  0  0  0  0  0  0  0  0
   -2.1454   -4.5948   -1.0743 C   0  0  0  0  0  0  0  0  0  0  0  0
   -2.6096   -4.3753   -2.2494 O   0  0  0  0  0  0  0  0  0  0  0  0
   -1.7029   -5.8602   -0.6601 N   0  0  0  0  0  0  0  0  0  0  0  0
   -1.7239   -7.0646   -1.4761 C   0  0  2  0  0  0  0  0  0  0  0  0
   -2.5262   -8.1279   -0.8025 C   0  0  0  0  0  0  0  0  0  0  0  0
   -2.7021   -9.2735   -1.2803 O   0  0  0  0  0  0  0  0  0  0  0  0
   -3.1451   -7.8664    0.4599 N   0  0  0  0  0  0  0  0  0  0  0  0
   -0.2880   -7.4747   -1.7220 C   0  0  2  0  0  0  0  0  0  0  0  0
    0.2949   -6.3787   -2.3957 O   0  0  0  0  0  0  0  0  0  0  0  0
   -0.1425   -8.6794   -2.5954 C   0  0  0  0  0  0  0  0  0  0  0  0
   -3.1855    6.2635    0.6203 H   0  0  0  0  0  0  0  0  0  0  0  0
   -2.0080    6.9144    1.6685 H   0  0  0  0  0  0  0  0  0  0  0  0
   -3.0197    5.5244    3.2557 H   0  0  0  0  0  0  0  0  0  0  0  0
   -1.9270    4.3988    2.4210 H   0  0  0  0  0  0  0  0  0  0  0  0
   -4.8084    4.9080    1.6277 H   0  0  0  0  0  0  0  0  0  0  0  0
   -4.2037    3.5281    2.6307 H   0  0  0  0  0  0  0  0  0  0  0  0
   -3.5128    3.9831   -0.3295 H   0  0  0  0  0  0  0  0  0  0  0  0
   -4.7140    2.9076    0.3567 H   0  0  0  0  0  0  0  0  0  0  0  0
   -4.0410    1.5113    2.2261 H   0  0  0  0  0  0  0  0  0  0  0  0
   -2.5002    0.6832    2.1581 H   0  0  0  0  0  0  0  0  0  0  0  0
   -3.5044    1.2915   -1.2019 H   0  0  0  0  0  0  0  0  0  0  0  0
   -3.7394   -0.6148   -2.6602 H   0  0  0  0  0  0  0  0  0  0  0  0
   -5.8628   -1.7768   -2.6285 H   0  0  0  0  0  0  0  0  0  0  0  0
   -6.0224   -0.0675   -2.9472 H   0  0  0  0  0  0  0  0  0  0  0  0
   -7.3466   -2.9180   -0.8608 H   0  0  0  0  0  0  0  0  0  0  0  0
   -9.0505   -2.0691    0.9184 H   0  0  0  0  0  0  0  0  0  0  0  0
   -6.3649    1.9858   -1.1159 H   0  0  0  0  0  0  0  0  0  0  0  0
   -7.5864    3.6354    0.3019 H   0  0  0  0  0  0  0  0  0  0  0  0
   -9.2774    2.8044    1.8268 H   0  0  0  0  0  0  0  0  0  0  0  0
   -9.8104    0.3595    2.0033 H   0  0  0  0  0  0  0  0  0  0  0  0
   -1.9943   -1.4117   -0.7069 H   0  0  0  0  0  0  0  0  0  0  0  0
   -2.7639   -3.7903    0.6994 H   0  0  0  0  0  0  0  0  0  0  0  0
   -0.3390   -4.2647    0.8142 H   0  0  0  0  0  0  0  0  0  0  0  0
   -0.7121   -2.5810    1.2868 H   0  0  0  0  0  0  0  0  0  0  0  0
    1.7003   -0.6265    1.2472 H   0  0  0  0  0  0  0  0  0  0  0  0
    2.1785   -0.1868   -0.3920 H   0  0  0  0  0  0  0  0  0  0  0  0
    4.5352   -0.2963    0.1331 H   0  0  0  0  0  0  0  0  0  0  0  0
    3.1504    1.8127   -0.3435 H   0  0  0  0  0  0  0  0  0  0  0  0
    3.4591    3.5730    2.1659 H   0  0  0  0  0  0  0  0  0  0  0  0
    1.2304    2.1259   -0.1090 H   0  0  0  0  0  0  0  0  0  0  0  0
   -0.6324    4.4107    0.3432 H   0  0  0  0  0  0  0  0  0  0  0  0
   -1.7207    3.8802   -1.8157 H   0  0  0  0  0  0  0  0  0  0  0  0
   -0.4579    2.5634   -2.1191 H   0  0  0  0  0  0  0  0  0  0  0  0
    1.8527    3.1831   -2.4425 H   0  0  0  0  0  0  0  0  0  0  0  0
    3.3224    4.9675   -3.2911 H   0  0  0  0  0  0  0  0  0  0  0  0
    2.5465    7.2738   -3.4271 H   0  0  0  0  0  0  0  0  0  0  0  0
    0.2227    7.8503   -2.6939 H   0  0  0  0  0  0  0  0  0  0  0  0
   -1.2038    6.1091   -1.8678 H   0  0  0  0  0  0  0  0  0  0  0  0
    3.9510    4.2148   -0.7966 H   0  0  0  0  0  0  0  0  0  0  0  0
    5.1957    3.8083    0.4002 H   0  0  0  0  0  0  0  0  0  0  0  0
    5.6395    6.3408   -0.9014 H   0  0  0  0  0  0  0  0  0  0  0  0
    5.5446    8.6665    0.2614 H   0  0  0  0  0  0  0  0  0  0  0  0
    3.1298    6.1334    2.4984 H   0  0  0  0  0  0  0  0  0  0  0  0
    3.8330   -1.6296    2.8149 H   0  0  0  0  0  0  0  0  0  0  0  0
    6.2788   -2.2522    3.9304 H   0  0  0  0  0  0  0  0  0  0  0  0
    6.9195   -4.5213    3.1338 H   0  0  0  0  0  0  0  0  0  0  0  0
    5.2843   -4.1460    2.4148 H   0  0  0  0  0  0  0  0  0  0  0  0
    5.1399   -3.5721    0.0613 H   0  0  0  0  0  0  0  0  0  0  0  0
    6.1555   -3.7624   -2.2317 H   0  0  0  0  0  0  0  0  0  0  0  0
    8.5513   -4.3121   -2.4375 H   0  0  0  0  0  0  0  0  0  0  0  0
    9.8974   -4.6611   -0.3809 H   0  0  0  0  0  0  0  0  0  0  0  0
    8.8786   -4.4685    1.8149 H   0  0  0  0  0  0  0  0  0  0  0  0
    8.1342   -1.1887    3.1636 H   0  0  0  0  0  0  0  0  0  0  0  0
    8.0425   -1.9176    1.6566 H   0  0  0  0  0  0  0  0  0  0  0  0
   -1.3216   -5.9751    0.3054 H   0  0  0  0  0  0  0  0  0  0  0  0
   -2.1606   -6.7518   -2.4519 H   0  0  0  0  0  0  0  0  0  0  0  0
   -2.5481   -7.5061    1.2502 H   0  0  0  0  0  0  0  0  0  0  0  0
   -4.1871   -8.0348    0.5966 H   0  0  0  0  0  0  0  0  0  0  0  0
    0.2841   -7.5335   -0.7602 H   0  0  0  0  0  0  0  0  0  0  0  0
    0.8895   -6.6786   -3.1279 H   0  0  0  0  0  0  0  0  0  0  0  0
    0.5402   -8.4421   -3.4342 H   0  0  0  0  0  0  0  0  0  0  0  0
    0.4093   -9.4413   -1.9793 H   0  0  0  0  0  0  0  0  0  0  0  0
   -1.1319   -9.0160   -2.9236 H   0  0  0  0  0  0  0  0  0  0  0  0
  1  2  1  0
  2  3  1  0
  3  4  1  0
  4  5  1  0
  5  6  1  0
  6  7  1  0
  7  8  2  0
  7  9  1  0
  9 10  1  0
 10 11  1  0
 11 12  1  0
 12 13  2  0
 13 14  1  0
 14 15  1  0
 15 16  2  0
 16 17  1  0
 17 18  2  0
 18 19  1  0
 19 20  2  0
 10 21  1  0
 21 22  2  0
 21 23  1  0
 23 24  1  0
 24 25  1  0
 25 26  1  0
 26 27  1  0
 27 28  1  0
 28 29  1  0
 29 30  1  0
 30 31  2  0
 30 32  1  0
 32 33  1  0
 33 34  1  0
 34 35  2  0
 34 36  1  0
 36 37  1  0
 37 38  1  0
 38 39  2  0
 37 40  1  0
 40 41  1  0
 41 42  2  0
 42 43  1  0
 43 44  2  0
 44 45  1  0
 45 46  2  0
 33 47  1  0
 47 48  1  0
 48 49  1  0
 49 50  1  0
 50 51  2  0
 51 52  1  0
 29 53  1  0
 53 54  1  0
 54 55  2  0
 54 56  1  0
 56 57  1  0
 57 58  1  0
 58 59  2  0
 59 60  1  0
 60 61  2  0
 61 62  1  0
 62 63  2  0
 56 64  1  0
 24 65  1  0
 65 66  2  0
 65 67  1  0
 67 68  1  0
 68 69  1  0
 69 70  2  0
 69 71  1  0
 68 72  1  0
 72 73  1  0
 72 74  1  0
 38  5  1  0
 46 41  1  0
 52 48  2  0
 63 58  1  0
 16 12  1  0
 20 15  1  0
  1 75  1  0
  1 76  1  0
  2 77  1  0
  2 78  1  0
  3 79  1  0
  3 80  1  0
  4 81  1  0
  4 82  1  0
  6 83  1  0
  6 84  1  0
  9 85  1  0
 10 86  1  6
 11 87  1  0
 11 88  1  0
 13 89  1  0
 14 90  1  0
 17 91  1  0
 18 92  1  0
 19 93  1  0
 20 94  1  0
 23 95  1  0
 24 96  1  1
 25 97  1  0
 25 98  1  0
 28 99  1  0
 28100  1  0
 29101  1  6
 32102  1  0
 33103  1  1
 36104  1  0
 37105  1  1
 40106  1  0
 40107  1  0
 42108  1  0
 43109  1  0
 44110  1  0
 45111  1  0
 46112  1  0
 47113  1  0
 47114  1  0
 49115  1  0
 50116  1  0
 52117  1  0
 53118  1  0
 56119  1  1
 57120  1  0
 57121  1  0
 59122  1  0
 60123  1  0
 61124  1  0
 62125  1  0
 63126  1  0
 64127  1  0
 64128  1  0
 67129  1  0
 68130  1  6
 71131  1  0
 71132  1  0
 72133  1  1
 73134  1  0
 74135  1  0
 74136  1  0
 74137  1  0
M  END
>  <Ligand ID>  (1) 
LIG0000804

>  <Ligand>  (1) 
CHEMBL415200

>  <SMILES>  (1) 
NCCCN1CC(=O)N[C@H](Cc2c[nH]c3c2cccc3)C(=O)N[C@H](CSSC[C@@H](C(=O)N[C@H](C(=O)N[C@H](C1=O)Cc1ccccc1)Cc1[nH]cnc1)NC(=O)[C@@H](Cc1ccccc1)N)C(=O)N[C@H](C(=O)N)[C@H](O)C

>  <CID>  (1) 
44285388.0

>  <ChEMBL ID>  (1) 
nan

>  <InChiKey>  (1) 
DWRYDXIVRLJQFS-KWGBNJDESA-N

>  <InChi>  (1) 
InChI=1S/C50H63N13O9S2/c1-29(64)43(44(53)66)62-49(71)41-27-74-73-26-40(60-45(67)35(52)19-30-11-4-2-5-12-30)48(70)58-38(22-33-24-54-28-56-33)47(69)59-39(20-31-13-6-3-7-14-31)50(72)63(18-10-17-51)25-42(65)57-37(46(68)61-41)21-32-23-55-36-16-9-8-15-34(32)36/h2-9,11-16,23-24,28-29,35,37-41,43,55,64H,10,17-22,25-27,51-52H2,1H3,(H2,53,66)(H,54,56)(H,57,65)(H,58,70)(H,59,69)(H,60,67)(H,61,68)(H,62,71)/t29-,35-,37-,38+,39+,40+,41-,43+/m1/s1

>  <IUPAC Name>  (1) 
(4S,7R,13S,16S,19R)-N-[(2S,3R)-1-amino-3-hydroxy-1-oxobutan-2-yl]-19-[[(2R)-2-amino-3-phenylpropanoyl]amino]-11-(3-aminopropyl)-13-benzyl-16-(1H-imidazol-5-ylmethyl)-7-(1H-indol-3-ylmethyl)-6,9,12,15,18-pentaoxo-1,2-dithia-5,8,11,14,17-pentazacycloicosane-4-carboxamide

$$$$
