
     RDKit          3D

 80 81  0  0  0  0  0  0  0  0999 V2000
   -4.6285   -5.1990   -0.0226 C   0  0  0  0  0  0  0  0  0  0  0  0
   -3.7975   -3.9922   -0.5036 C   0  0  0  0  0  0  0  0  0  0  0  0
   -2.6377   -3.9713    0.2766 N   0  0  0  0  0  0  0  0  0  0  0  0
   -1.5724   -3.1312    0.0876 C   0  0  0  0  0  0  0  0  0  0  0  0
   -1.5403   -1.6761    0.3711 C   0  0  0  0  0  0  0  0  0  0  0  0
   -2.5043   -0.8884   -0.3537 C   0  0  0  0  0  0  0  0  0  0  0  0
   -2.1610   -0.3959   -1.4885 O   0  0  0  0  0  0  0  0  0  0  0  0
   -3.8630   -0.5771    0.0718 C   0  0  0  0  0  0  0  0  0  0  0  0
   -4.7387    0.1374   -0.7269 C   0  0  0  0  0  0  0  0  0  0  0  0
   -6.0305    0.4290   -0.2864 C   0  0  0  0  0  0  0  0  0  0  0  0
   -6.4799    0.0131    0.9637 C   0  0  0  0  0  0  0  0  0  0  0  0
   -5.5843   -0.6910    1.7210 C   0  0  0  0  0  0  0  0  0  0  0  0
   -4.3093   -0.9905    1.3117 C   0  0  0  0  0  0  0  0  0  0  0  0
   -7.7197    0.2557    1.4657 O   0  0  0  0  0  0  0  0  0  0  0  0
   -8.7279    0.9813    0.8462 C   0  0  0  0  0  0  0  0  0  0  0  0
   -8.4548    2.4319    0.6318 C   0  0  0  0  0  0  0  0  0  0  0  0
   -9.6567    3.0358   -0.0809 C   0  0  0  0  0  0  0  0  0  0  0  0
   -0.0860   -1.2774    0.0533 C   0  0  0  0  0  0  0  0  0  0  0  0
    0.2221    0.1428    0.2549 C   0  0  0  0  0  0  0  0  0  0  0  0
    1.6764    0.4118   -0.0242 C   0  0  0  0  0  0  0  0  0  0  0  0
    2.0309    1.8637    0.1702 C   0  0  0  0  0  0  0  0  0  0  0  0
    1.1836    2.7671    0.2431 O   0  0  0  0  0  0  0  0  0  0  0  0
    3.4534    2.1979    0.2770 C   0  0  0  0  0  0  0  0  0  0  0  0
    3.9037    3.4945    0.3383 C   0  0  0  0  0  0  0  0  0  0  0  0
    5.2405    3.8372    0.4705 C   0  0  0  0  0  0  0  0  0  0  0  0
    6.1826    2.8461    0.5464 C   0  0  0  0  0  0  0  0  0  0  0  0
    5.7533    1.5399    0.4881 C   0  0  0  0  0  0  0  0  0  0  0  0
    4.4297    1.1953    0.3572 C   0  0  0  0  0  0  0  0  0  0  0  0
    7.5464    3.0531    0.6745 O   0  0  0  0  0  0  0  0  0  0  0  0
    8.4533    1.9815    0.7546 C   0  0  0  0  0  0  0  0  0  0  0  0
    9.8780    2.4585    0.8627 C   0  0  0  0  0  0  0  0  0  0  0  0
   10.2471    3.2717   -0.3638 C   0  0  0  0  0  0  0  0  0  0  0  0
    2.1672   -0.0599   -1.3658 C   0  0  0  0  0  0  0  0  0  0  0  0
    2.1164   -1.4390   -1.6185 N   0  0  0  0  0  0  0  0  0  0  0  0
    2.9635   -2.3219   -0.9452 C   0  0  0  0  0  0  0  0  0  0  0  0
    4.4231   -2.2609   -1.2851 C   0  0  0  0  0  0  0  0  0  0  0  0
   -3.8809   -5.9989    0.1202 H   0  0  0  0  0  0  0  0  0  0  0  0
   -5.3445   -5.4675   -0.8095 H   0  0  0  0  0  0  0  0  0  0  0  0
   -5.1666   -4.9100    0.8829 H   0  0  0  0  0  0  0  0  0  0  0  0
   -4.4864   -3.1580   -0.5032 H   0  0  0  0  0  0  0  0  0  0  0  0
   -3.6100   -4.2117   -1.5907 H   0  0  0  0  0  0  0  0  0  0  0  0
   -2.4657   -4.8298    0.8557 H   0  0  0  0  0  0  0  0  0  0  0  0
   -1.2167   -3.2137   -1.0060 H   0  0  0  0  0  0  0  0  0  0  0  0
   -0.6530   -3.6105    0.6268 H   0  0  0  0  0  0  0  0  0  0  0  0
   -1.6858   -1.5744    1.5021 H   0  0  0  0  0  0  0  0  0  0  0  0
   -4.3914    0.4532   -1.6795 H   0  0  0  0  0  0  0  0  0  0  0  0
   -6.6410    0.9700   -0.9845 H   0  0  0  0  0  0  0  0  0  0  0  0
   -5.9076   -1.0393    2.7136 H   0  0  0  0  0  0  0  0  0  0  0  0
   -3.6871   -1.5494    1.9807 H   0  0  0  0  0  0  0  0  0  0  0  0
   -9.6837    0.8535    1.4132 H   0  0  0  0  0  0  0  0  0  0  0  0
   -8.9614    0.5360   -0.1631 H   0  0  0  0  0  0  0  0  0  0  0  0
   -7.5557    2.6966    0.0888 H   0  0  0  0  0  0  0  0  0  0  0  0
   -8.3621    2.9705    1.6364 H   0  0  0  0  0  0  0  0  0  0  0  0
  -10.5685    3.0499    0.5410 H   0  0  0  0  0  0  0  0  0  0  0  0
   -9.4316    4.0568   -0.4131 H   0  0  0  0  0  0  0  0  0  0  0  0
   -9.8024    2.4184   -0.9952 H   0  0  0  0  0  0  0  0  0  0  0  0
   -0.0343   -1.4816   -1.0551 H   0  0  0  0  0  0  0  0  0  0  0  0
    0.5212   -1.9326    0.6696 H   0  0  0  0  0  0  0  0  0  0  0  0
   -0.3625    0.8150   -0.4256 H   0  0  0  0  0  0  0  0  0  0  0  0
    0.0031    0.5256    1.2793 H   0  0  0  0  0  0  0  0  0  0  0  0
    2.2588   -0.1769    0.7424 H   0  0  0  0  0  0  0  0  0  0  0  0
    3.1692    4.2969    0.2783 H   0  0  0  0  0  0  0  0  0  0  0  0
    5.5723    4.8699    0.5147 H   0  0  0  0  0  0  0  0  0  0  0  0
    6.4904    0.7340    0.5468 H   0  0  0  0  0  0  0  0  0  0  0  0
    4.1931    0.1487    0.3358 H   0  0  0  0  0  0  0  0  0  0  0  0
    8.2479    1.3562    1.6670 H   0  0  0  0  0  0  0  0  0  0  0  0
    8.3803    1.3384   -0.1638 H   0  0  0  0  0  0  0  0  0  0  0  0
   10.5696    1.5813    0.8845 H   0  0  0  0  0  0  0  0  0  0  0  0
   10.0212    3.0064    1.7997 H   0  0  0  0  0  0  0  0  0  0  0  0
    9.5483    2.9471   -1.1858 H   0  0  0  0  0  0  0  0  0  0  0  0
   10.0861    4.3377   -0.1281 H   0  0  0  0  0  0  0  0  0  0  0  0
   11.2850    3.0655   -0.6728 H   0  0  0  0  0  0  0  0  0  0  0  0
    1.3825    0.3915   -2.0867 H   0  0  0  0  0  0  0  0  0  0  0  0
    3.0722    0.4942   -1.6526 H   0  0  0  0  0  0  0  0  0  0  0  0
    1.8043   -1.7210   -2.5704 H   0  0  0  0  0  0  0  0  0  0  0  0
    2.6182   -3.3631   -1.1468 H   0  0  0  0  0  0  0  0  0  0  0  0
    2.8116   -2.2015    0.1616 H   0  0  0  0  0  0  0  0  0  0  0  0
    4.9619   -2.7515   -0.4319 H   0  0  0  0  0  0  0  0  0  0  0  0
    4.8524   -1.2861   -1.4419 H   0  0  0  0  0  0  0  0  0  0  0  0
    4.6707   -2.9093   -2.1616 H   0  0  0  0  0  0  0  0  0  0  0  0
  1  2  1  0
  2  3  1  0
  3  4  1  0
  4  5  1  0
  5  6  1  0
  6  7  2  0
  6  8  1  0
  8  9  2  0
  9 10  1  0
 10 11  2  0
 11 12  1  0
 12 13  2  0
 11 14  1  0
 14 15  1  0
 15 16  1  0
 16 17  1  0
  5 18  1  0
 18 19  1  0
 19 20  1  0
 20 21  1  0
 21 22  2  0
 21 23  1  0
 23 24  2  0
 24 25  1  0
 25 26  2  0
 26 27  1  0
 27 28  2  0
 26 29  1  0
 29 30  1  0
 30 31  1  0
 31 32  1  0
 20 33  1  0
 33 34  1  0
 34 35  1  0
 35 36  1  0
 13  8  1  0
 28 23  1  0
  1 37  1  0
  1 38  1  0
  1 39  1  0
  2 40  1  0
  2 41  1  0
  3 42  1  0
  4 43  1  0
  4 44  1  0
  5 45  1  0
  9 46  1  0
 10 47  1  0
 12 48  1  0
 13 49  1  0
 15 50  1  0
 15 51  1  0
 16 52  1  0
 16 53  1  0
 17 54  1  0
 17 55  1  0
 17 56  1  0
 18 57  1  0
 18 58  1  0
 19 59  1  0
 19 60  1  0
 20 61  1  0
 24 62  1  0
 25 63  1  0
 27 64  1  0
 28 65  1  0
 30 66  1  0
 30 67  1  0
 31 68  1  0
 31 69  1  0
 32 70  1  0
 32 71  1  0
 32 72  1  0
 33 73  1  0
 33 74  1  0
 34 75  1  0
 35 76  1  0
 35 77  1  0
 36 78  1  0
 36 79  1  0
 36 80  1  0
M  END
>  <Ligand ID>  (1) 
LIG0004356

>  <Ligand>  (1) 
MLS000587374

>  <SMILES>  (1) 
CCNCC(C(=O)c1ccc(cc1)OCCC)CCC(C(=O)c1ccc(cc1)OCCC)CNCC

>  <CID>  (1) 
3835696.0

>  <ChEMBL ID>  (1) 
nan

>  <InChiKey>  (1) 
CKJMLCBLCIPXFD-UHFFFAOYSA-N

>  <InChi>  (1) 
InChI=1S/C30H44N2O4/c1-5-19-35-27-15-11-23(12-16-27)29(33)25(21-31-7-3)9-10-26(22-32-8-4)30(34)24-13-17-28(18-14-24)36-20-6-2/h11-18,25-26,31-32H,5-10,19-22H2,1-4H3

>  <IUPAC Name>  (1) 
2,5-bis(ethylaminomethyl)-1,6-bis(4-propoxyphenyl)hexane-1,6-dione

$$$$
