
     RDKit          3D

 62 65  0  0  0  0  0  0  0  0999 V2000
   -2.0565    5.0886   -0.6013 C   0  0  0  0  0  0  0  0  0  0  0  0
   -1.5026    4.1660    0.4739 C   0  0  0  0  0  0  0  0  0  0  0  0
   -1.7309    2.8294    0.1539 O   0  0  0  0  0  0  0  0  0  0  0  0
   -1.2947    1.8324    1.0193 C   0  0  0  0  0  0  0  0  0  0  0  0
   -0.6934    2.0591    2.0965 O   0  0  0  0  0  0  0  0  0  0  0  0
   -1.6042    0.4174    0.5593 C   0  0  0  0  0  0  0  0  0  0  0  0
   -0.9894    0.2601   -0.7854 C   0  0  0  0  0  0  0  0  0  0  0  0
    0.4143    0.8434   -0.7432 C   0  0  0  0  0  0  0  0  0  0  0  0
    0.9822    0.7807    0.5292 N   0  0  0  0  0  0  0  0  0  0  0  0
    0.6482   -0.3956    1.2826 C   0  0  0  0  0  0  0  0  0  0  0  0
   -0.8575   -0.4959    1.5245 C   0  0  0  0  0  0  0  0  0  0  0  0
    2.2800    1.2040    0.8067 C   0  0  0  0  0  0  0  0  0  0  0  0
    3.3897    0.6017    0.0379 C   0  0  0  0  0  0  0  0  0  0  0  0
    4.2177   -0.4049    0.4471 N   0  0  0  0  0  0  0  0  0  0  0  0
    5.0891   -0.6867   -0.5361 C   0  0  0  0  0  0  0  0  0  0  0  0
    4.8441    0.0965   -1.5391 O   0  0  0  0  0  0  0  0  0  0  0  0
    3.8211    0.8964   -1.2371 C   0  0  0  0  0  0  0  0  0  0  0  0
    3.2845    1.9196   -2.1711 C   0  0  0  0  0  0  0  0  0  0  0  0
    6.1314   -1.7109   -0.4638 C   0  0  0  0  0  0  0  0  0  0  0  0
    6.4244   -2.5454    0.5494 C   0  0  0  0  0  0  0  0  0  0  0  0
    7.4241   -3.4299    0.4335 C   0  0  0  0  0  0  0  0  0  0  0  0
    8.1035   -3.3860   -0.8191 C   0  0  0  0  0  0  0  0  0  0  0  0
    7.2556   -2.0628   -1.7645 S   0  0  0  0  0  0  0  0  0  0  0  0
   -3.0679    0.3384    0.6219 C   0  0  0  0  0  0  0  0  0  0  0  0
   -3.8053   -0.8644    0.2420 C   0  0  0  0  0  0  0  0  0  0  0  0
   -3.5458   -2.1318    0.9768 C   0  0  0  0  0  0  0  0  0  0  0  0
   -4.8732   -2.9194    0.9115 C   0  0  0  0  0  0  0  0  0  0  0  0
   -5.6733   -2.4632   -0.2902 C   0  0  0  0  0  0  0  0  0  0  0  0
   -4.8522   -1.9620   -1.4231 C   0  0  0  0  0  0  0  0  0  0  0  0
   -3.7898   -1.1587   -1.1208 O   0  0  0  0  0  0  0  0  0  0  0  0
   -1.3689    4.9620   -1.4848 H   0  0  0  0  0  0  0  0  0  0  0  0
   -1.9885    6.1348   -0.2855 H   0  0  0  0  0  0  0  0  0  0  0  0
   -3.0636    4.8152   -0.9366 H   0  0  0  0  0  0  0  0  0  0  0  0
   -1.9647    4.4837    1.4267 H   0  0  0  0  0  0  0  0  0  0  0  0
   -0.4011    4.3302    0.5010 H   0  0  0  0  0  0  0  0  0  0  0  0
   -0.8834   -0.7981   -1.1071 H   0  0  0  0  0  0  0  0  0  0  0  0
   -1.5610    0.8238   -1.5727 H   0  0  0  0  0  0  0  0  0  0  0  0
    1.0312    0.3094   -1.5064 H   0  0  0  0  0  0  0  0  0  0  0  0
    0.3725    1.8992   -1.1208 H   0  0  0  0  0  0  0  0  0  0  0  0
    1.1184   -0.3476    2.2895 H   0  0  0  0  0  0  0  0  0  0  0  0
    1.0393   -1.3274    0.8228 H   0  0  0  0  0  0  0  0  0  0  0  0
   -1.0939   -0.2162    2.5544 H   0  0  0  0  0  0  0  0  0  0  0  0
   -1.0991   -1.5522    1.4038 H   0  0  0  0  0  0  0  0  0  0  0  0
    2.3157    2.3373    0.7370 H   0  0  0  0  0  0  0  0  0  0  0  0
    2.4408    1.0506    1.9218 H   0  0  0  0  0  0  0  0  0  0  0  0
    2.6650    1.4926   -2.9715 H   0  0  0  0  0  0  0  0  0  0  0  0
    4.1179    2.4610   -2.6840 H   0  0  0  0  0  0  0  0  0  0  0  0
    2.7437    2.7340   -1.6097 H   0  0  0  0  0  0  0  0  0  0  0  0
    5.8225   -2.4988    1.5016 H   0  0  0  0  0  0  0  0  0  0  0  0
    7.7609   -4.1514    1.1657 H   0  0  0  0  0  0  0  0  0  0  0  0
    8.9568   -3.9924   -1.1914 H   0  0  0  0  0  0  0  0  0  0  0  0
   -3.3809    0.6301    1.6486 H   0  0  0  0  0  0  0  0  0  0  0  0
   -3.4670    1.1833   -0.0185 H   0  0  0  0  0  0  0  0  0  0  0  0
   -4.9002   -0.6103    0.4286 H   0  0  0  0  0  0  0  0  0  0  0  0
   -3.3631   -1.9561    2.0301 H   0  0  0  0  0  0  0  0  0  0  0  0
   -2.8313   -2.8053    0.4570 H   0  0  0  0  0  0  0  0  0  0  0  0
   -5.5022   -2.7281    1.8045 H   0  0  0  0  0  0  0  0  0  0  0  0
   -4.6971   -3.9992    0.8563 H   0  0  0  0  0  0  0  0  0  0  0  0
   -6.2137   -3.3712   -0.6705 H   0  0  0  0  0  0  0  0  0  0  0  0
   -6.5155   -1.7822    0.0166 H   0  0  0  0  0  0  0  0  0  0  0  0
   -4.5063   -2.8212   -2.0685 H   0  0  0  0  0  0  0  0  0  0  0  0
   -5.5562   -1.4062   -2.1067 H   0  0  0  0  0  0  0  0  0  0  0  0
  1  2  1  0
  2  3  1  0
  3  4  1  0
  4  5  2  0
  4  6  1  0
  6  7  1  0
  7  8  1  0
  8  9  1  0
  9 10  1  0
 10 11  1  0
  9 12  1  0
 12 13  1  0
 13 14  1  0
 14 15  2  0
 15 16  1  0
 16 17  1  0
 17 18  1  0
 15 19  1  0
 19 20  2  0
 20 21  1  0
 21 22  2  0
 22 23  1  0
  6 24  1  0
 24 25  1  0
 25 26  1  0
 26 27  1  0
 27 28  1  0
 28 29  1  0
 29 30  1  0
 11  6  1  0
 17 13  2  0
 23 19  1  0
 30 25  1  0
  1 31  1  0
  1 32  1  0
  1 33  1  0
  2 34  1  0
  2 35  1  0
  7 36  1  0
  7 37  1  0
  8 38  1  0
  8 39  1  0
 10 40  1  0
 10 41  1  0
 11 42  1  0
 11 43  1  0
 12 44  1  0
 12 45  1  0
 18 46  1  0
 18 47  1  0
 18 48  1  0
 20 49  1  0
 21 50  1  0
 22 51  1  0
 24 52  1  0
 24 53  1  0
 25 54  1  0
 26 55  1  0
 26 56  1  0
 27 57  1  0
 27 58  1  0
 28 59  1  0
 28 60  1  0
 29 61  1  0
 29 62  1  0
M  END
>  <Ligand ID>  (1) 
LIG0004430

>  <Ligand>  (1) 
MLS000735937

>  <SMILES>  (1) 
CCOC(=O)C1(CCN(CC1)Cc1nc(oc1C)c1cccs1)CC1CCCCO1

>  <CID>  (1) 
16191129.0

>  <ChEMBL ID>  (1) 
nan

>  <InChiKey>  (1) 
IDIUMHIAZOKSET-UHFFFAOYSA-N

>  <InChi>  (1) 
InChI=1S/C23H32N2O4S/c1-3-27-22(26)23(15-18-7-4-5-13-28-18)9-11-25(12-10-23)16-19-17(2)29-21(24-19)20-8-6-14-30-20/h6,8,14,18H,3-5,7,9-13,15-16H2,1-2H3

>  <IUPAC Name>  (1) 
ethyl 1-[(5-methyl-2-thiophen-2-yl-1,3-oxazol-4-yl)methyl]-4-(oxan-2-ylmethyl)piperidine-4-carboxylate

$$$$
