
     RDKit          3D

 33 35  0  0  0  0  0  0  0  0999 V2000
   -5.9042   -2.4080   -0.5486 F   0  0  0  0  0  0  0  0  0  0  0  0
   -5.2450   -1.2290   -0.6289 C   0  0  0  0  0  0  0  0  0  0  0  0
   -5.9234   -0.0119   -0.6704 C   0  0  0  0  0  0  0  0  0  0  0  0
   -5.2264    1.1805   -0.7525 C   0  0  0  0  0  0  0  0  0  0  0  0
   -3.8518    1.2113   -0.7959 C   0  0  0  0  0  0  0  0  0  0  0  0
   -3.1543    0.0008   -0.7553 C   0  0  0  0  0  0  0  0  0  0  0  0
   -3.8532   -1.1902   -0.6732 C   0  0  0  0  0  0  0  0  0  0  0  0
   -1.6673   -0.0351   -0.7986 C   0  0  0  0  0  0  0  0  0  0  0  0
   -1.0817    0.0172    0.4680 O   0  0  0  0  0  0  0  0  0  0  0  0
    0.2860   -0.0014    0.7068 C   0  0  0  0  0  0  0  0  0  0  0  0
    0.6857    0.0581    2.0316 C   0  0  0  0  0  0  0  0  0  0  0  0
    2.0274    0.0444    2.3531 C   0  0  0  0  0  0  0  0  0  0  0  0
    2.9254   -0.0299    1.3092 C   0  0  0  0  0  0  0  0  0  0  0  0
    2.5225   -0.0891   -0.0114 C   0  0  0  0  0  0  0  0  0  0  0  0
    1.2063   -0.0729   -0.2730 N   0  0  0  0  0  0  0  0  0  0  0  0
    3.4893   -0.1682   -1.1168 C   0  0  0  0  0  0  0  0  0  0  0  0
    4.8200    0.4261   -0.7098 C   0  0  0  0  0  0  0  0  0  0  0  0
    5.2718   -0.1215    0.5630 N   0  0  0  0  0  0  0  0  0  0  0  0
    4.3491   -0.0441    1.6570 C   0  0  0  0  0  0  0  0  0  0  0  0
    4.7664    0.0077    2.8394 O   0  0  0  0  0  0  0  0  0  0  0  0
   -7.0030    0.0102   -0.6387 H   0  0  0  0  0  0  0  0  0  0  0  0
   -5.8037    2.1123   -0.7825 H   0  0  0  0  0  0  0  0  0  0  0  0
   -3.3239    2.1522   -0.8600 H   0  0  0  0  0  0  0  0  0  0  0  0
   -3.3138   -2.1291   -0.6416 H   0  0  0  0  0  0  0  0  0  0  0  0
   -1.2659    0.7968   -1.4192 H   0  0  0  0  0  0  0  0  0  0  0  0
   -1.3747   -0.9882   -1.3043 H   0  0  0  0  0  0  0  0  0  0  0  0
   -0.0125    0.1153    2.8321 H   0  0  0  0  0  0  0  0  0  0  0  0
    2.3263    0.0914    3.3918 H   0  0  0  0  0  0  0  0  0  0  0  0
    3.7103   -1.2426   -1.3820 H   0  0  0  0  0  0  0  0  0  0  0  0
    3.1612    0.3495   -2.0327 H   0  0  0  0  0  0  0  0  0  0  0  0
    4.6559    1.5261   -0.5842 H   0  0  0  0  0  0  0  0  0  0  0  0
    5.5920    0.2136   -1.4736 H   0  0  0  0  0  0  0  0  0  0  0  0
    6.2093   -0.5526    0.7014 H   0  0  0  0  0  0  0  0  0  0  0  0
  1  2  1  0
  2  3  2  0
  3  4  1  0
  4  5  2  0
  5  6  1  0
  6  7  2  0
  6  8  1  0
  8  9  1  0
  9 10  1  0
 10 11  2  0
 11 12  1  0
 12 13  2  0
 13 14  1  0
 14 15  2  0
 14 16  1  0
 16 17  1  0
 17 18  1  0
 18 19  1  0
 19 20  2  0
  7  2  1  0
 15 10  1  0
 19 13  1  0
  3 21  1  0
  4 22  1  0
  5 23  1  0
  7 24  1  0
  8 25  1  0
  8 26  1  0
 11 27  1  0
 12 28  1  0
 16 29  1  0
 16 30  1  0
 17 31  1  0
 17 32  1  0
 18 33  1  0
M  END
>  <Ligand ID>  (1) 
LIG0000433

>  <Ligand>  (1) 
CHEMBL3298273

>  <SMILES>  (1) 
Fc1cccc(c1)COc1ccc2c(n1)CCNC2=O

>  <CID>  (1) 
57405264.0

>  <ChEMBL ID>  (1) 
nan

>  <InChiKey>  (1) 
FMUAFDSEYCJYKD-UHFFFAOYSA-N

>  <InChi>  (1) 
InChI=1S/C15H13FN2O2/c16-11-3-1-2-10(8-11)9-20-14-5-4-12-13(18-14)6-7-17-15(12)19/h1-5,8H,6-7,9H2,(H,17,19)

>  <IUPAC Name>  (1) 
2-[(3-fluorophenyl)methoxy]-7,8-dihydro-6H-1,6-naphthyridin-5-one

$$$$
