
     RDKit          3D

102105  0  0  0  0  0  0  0  0999 V2000
   -3.3936   -3.2912   -2.7083 O   0  0  0  0  0  0  0  0  0  0  0  0
   -3.0230   -3.8261   -1.6430 C   0  0  0  0  0  0  0  0  0  0  0  0
   -1.6428   -4.1329   -1.5717 N   0  0  0  0  0  0  0  0  0  0  0  0
   -0.6667   -3.9411   -2.6133 C   0  0  0  0  0  0  0  0  0  0  0  0
   -0.6423   -2.5633   -3.1788 C   0  0  0  0  0  0  0  0  0  0  0  0
   -0.4588   -1.4413   -2.2223 C   0  0  0  0  0  0  0  0  0  0  0  0
    0.8761   -1.3295   -1.5993 C   0  0  0  0  0  0  0  0  0  0  0  0
    0.8738   -0.3503   -0.4455 C   0  0  1  0  0  0  0  0  0  0  0  0
    2.1579   -0.1000    0.1230 N   0  0  0  0  0  0  0  0  0  0  0  0
    2.7081   -0.7721    1.2476 C   0  0  0  0  0  0  0  0  0  0  0  0
    2.0939   -1.6823    1.8725 O   0  0  0  0  0  0  0  0  0  0  0  0
    4.0739   -0.3563    1.6741 C   0  0  2  0  0  0  0  0  0  0  0  0
    5.0508   -0.2375    0.5561 C   0  0  0  0  0  0  0  0  0  0  0  0
    6.4022    0.1659    1.0047 C   0  0  0  0  0  0  0  0  0  0  0  0
    6.6319    1.4647    1.3986 C   0  0  0  0  0  0  0  0  0  0  0  0
    5.5843    2.5156    1.4270 C   0  0  0  0  0  0  0  0  0  0  0  0
    7.9079    1.8344    1.8015 C   0  0  0  0  0  0  0  0  0  0  0  0
    8.9563    0.9280    1.8172 C   0  0  0  0  0  0  0  0  0  0  0  0
    8.6684   -0.3531    1.4140 C   0  0  0  0  0  0  0  0  0  0  0  0
    7.4191   -0.7722    1.0047 C   0  0  0  0  0  0  0  0  0  0  0  0
    7.2040   -2.1826    0.5827 C   0  0  0  0  0  0  0  0  0  0  0  0
   10.2175    1.3161    2.2214 O   0  0  0  0  0  0  0  0  0  0  0  0
    4.5706   -1.2724    2.6649 N   0  0  0  0  0  0  0  0  0  0  0  0
   -0.0517    0.7565   -0.5923 C   0  0  0  0  0  0  0  0  0  0  0  0
   -1.0638    0.7407   -1.3201 O   0  0  0  0  0  0  0  0  0  0  0  0
    0.0769    2.0411    0.0981 N   0  0  0  0  0  0  0  0  0  0  0  0
   -1.0187    2.9486   -0.0923 C   0  0  2  0  0  0  0  0  0  0  0  0
   -2.3534    2.2677    0.0788 C   0  0  0  0  0  0  0  0  0  0  0  0
   -3.3757    2.7640   -0.3489 O   0  0  0  0  0  0  0  0  0  0  0  0
   -2.4851    1.0232    0.7541 N   0  0  0  0  0  0  0  0  0  0  0  0
   -3.5924    0.1900    0.9458 C   0  0  2  0  0  0  0  0  0  0  0  0
   -3.9761   -0.7233   -0.1633 C   0  0  0  0  0  0  0  0  0  0  0  0
   -3.7591   -0.5536   -1.3630 O   0  0  0  0  0  0  0  0  0  0  0  0
   -4.6513   -1.9208    0.1758 N   0  0  0  0  0  0  0  0  0  0  0  0
   -5.1074   -2.9700   -0.6983 C   0  0  1  0  0  0  0  0  0  0  0  0
   -4.0325   -4.0770   -0.6052 C   0  0  0  0  0  0  0  0  0  0  0  0
   -6.3935   -3.5675   -0.3601 C   0  0  0  0  0  0  0  0  0  0  0  0
   -7.0584   -3.2071    0.6433 O   0  0  0  0  0  0  0  0  0  0  0  0
   -6.8926   -4.5995   -1.2219 N   0  0  0  0  0  0  0  0  0  0  0  0
   -4.9039    0.8457    1.3526 C   0  0  0  0  0  0  0  0  0  0  0  0
   -4.8778    1.5585    2.6282 C   0  0  0  0  0  0  0  0  0  0  0  0
   -4.6279    2.8821    2.8341 C   0  0  0  0  0  0  0  0  0  0  0  0
   -4.6130    3.5103    4.0621 C   0  0  0  0  0  0  0  0  0  0  0  0
   -4.8761    2.7336    5.2055 C   0  0  0  0  0  0  0  0  0  0  0  0
   -5.1243    1.4184    4.9974 C   0  0  0  0  0  0  0  0  0  0  0  0
   -5.1411    0.7840    3.7783 C   0  0  0  0  0  0  0  0  0  0  0  0
   -4.8595    3.3593    6.3996 F   0  0  0  0  0  0  0  0  0  0  0  0
   -0.9334    3.9284   -1.1674 C   0  0  0  0  0  0  0  0  0  0  0  0
   -0.7847    3.3941   -2.5373 C   0  0  0  0  0  0  0  0  0  0  0  0
   -1.8438    3.1193   -3.3789 C   0  0  0  0  0  0  0  0  0  0  0  0
   -1.6235    2.6045   -4.6456 C   0  0  0  0  0  0  0  0  0  0  0  0
   -0.3425    2.3549   -5.0943 C   0  0  0  0  0  0  0  0  0  0  0  0
    0.6889    2.6394   -4.2333 C   0  0  0  0  0  0  0  0  0  0  0  0
    0.5199    3.1517   -2.9663 C   0  0  0  0  0  0  0  0  0  0  0  0
   -1.3318   -4.5299   -0.6798 H   0  0  0  0  0  0  0  0  0  0  0  0
   -0.8251   -4.6431   -3.4668 H   0  0  0  0  0  0  0  0  0  0  0  0
    0.3667   -4.1651   -2.2583 H   0  0  0  0  0  0  0  0  0  0  0  0
   -1.5860   -2.3747   -3.7597 H   0  0  0  0  0  0  0  0  0  0  0  0
    0.1694   -2.5471   -3.9661 H   0  0  0  0  0  0  0  0  0  0  0  0
   -1.2702   -1.4988   -1.4595 H   0  0  0  0  0  0  0  0  0  0  0  0
   -0.6884   -0.5192   -2.8612 H   0  0  0  0  0  0  0  0  0  0  0  0
    1.5592   -0.8578   -2.3668 H   0  0  0  0  0  0  0  0  0  0  0  0
    1.3398   -2.2853   -1.3177 H   0  0  0  0  0  0  0  0  0  0  0  0
    0.3515   -1.0199    0.3923 H   0  0  0  0  0  0  0  0  0  0  0  0
    2.7376    0.6604   -0.3528 H   0  0  0  0  0  0  0  0  0  0  0  0
    3.9715    0.6335    2.2245 H   0  0  0  0  0  0  0  0  0  0  0  0
    4.7505    0.5155   -0.2108 H   0  0  0  0  0  0  0  0  0  0  0  0
    5.1114   -1.2226    0.0497 H   0  0  0  0  0  0  0  0  0  0  0  0
    5.2246    2.6635    2.4762 H   0  0  0  0  0  0  0  0  0  0  0  0
    4.7678    2.3212    0.7127 H   0  0  0  0  0  0  0  0  0  0  0  0
    6.0743    3.4803    1.1335 H   0  0  0  0  0  0  0  0  0  0  0  0
    8.1438    2.8472    2.1227 H   0  0  0  0  0  0  0  0  0  0  0  0
    9.4559   -1.1169    1.4023 H   0  0  0  0  0  0  0  0  0  0  0  0
    8.1989   -2.7028    0.5432 H   0  0  0  0  0  0  0  0  0  0  0  0
    6.8175   -2.2007   -0.4694 H   0  0  0  0  0  0  0  0  0  0  0  0
    6.5080   -2.7221    1.2544 H   0  0  0  0  0  0  0  0  0  0  0  0
   10.9826    0.6539    2.0644 H   0  0  0  0  0  0  0  0  0  0  0  0
    4.4015   -2.2540    2.3633 H   0  0  0  0  0  0  0  0  0  0  0  0
    4.3019   -1.0742    3.6347 H   0  0  0  0  0  0  0  0  0  0  0  0
    0.9242    2.1392    0.6260 H   0  0  0  0  0  0  0  0  0  0  0  0
   -1.0132    3.5228    0.8997 H   0  0  0  0  0  0  0  0  0  0  0  0
   -1.5689    0.7290    1.2202 H   0  0  0  0  0  0  0  0  0  0  0  0
   -3.3796   -0.4646    1.8489 H   0  0  0  0  0  0  0  0  0  0  0  0
   -4.8357   -2.0495    1.1854 H   0  0  0  0  0  0  0  0  0  0  0  0
   -5.1229   -2.6475   -1.7676 H   0  0  0  0  0  0  0  0  0  0  0  0
   -4.4979   -5.0614   -0.8372 H   0  0  0  0  0  0  0  0  0  0  0  0
   -3.6305   -4.0437    0.4090 H   0  0  0  0  0  0  0  0  0  0  0  0
   -7.5073   -4.3192   -2.0162 H   0  0  0  0  0  0  0  0  0  0  0  0
   -6.6725   -5.6058   -1.0955 H   0  0  0  0  0  0  0  0  0  0  0  0
   -5.6283    0.0079    1.4320 H   0  0  0  0  0  0  0  0  0  0  0  0
   -5.3173    1.4489    0.4943 H   0  0  0  0  0  0  0  0  0  0  0  0
   -4.4316    3.5102    1.9796 H   0  0  0  0  0  0  0  0  0  0  0  0
   -4.4096    4.5654    4.1700 H   0  0  0  0  0  0  0  0  0  0  0  0
   -5.3342    0.7919    5.8706 H   0  0  0  0  0  0  0  0  0  0  0  0
   -5.3496   -0.2791    3.6928 H   0  0  0  0  0  0  0  0  0  0  0  0
   -1.8484    4.5890   -1.0921 H   0  0  0  0  0  0  0  0  0  0  0  0
   -0.0915    4.6324   -0.9427 H   0  0  0  0  0  0  0  0  0  0  0  0
   -2.8508    3.3141   -3.0351 H   0  0  0  0  0  0  0  0  0  0  0  0
   -2.4484    2.3778   -5.3341 H   0  0  0  0  0  0  0  0  0  0  0  0
   -0.0954    1.9588   -6.0530 H   0  0  0  0  0  0  0  0  0  0  0  0
    1.7292    2.4627   -4.5325 H   0  0  0  0  0  0  0  0  0  0  0  0
    1.3555    3.3620   -2.3209 H   0  0  0  0  0  0  0  0  0  0  0  0
  1  2  2  0
  2  3  1  0
  3  4  1  0
  4  5  1  0
  5  6  1  0
  6  7  1  0
  7  8  1  0
  8  9  1  0
  9 10  1  0
 10 11  2  0
 10 12  1  0
 12 13  1  0
 13 14  1  0
 14 15  2  0
 15 16  1  0
 15 17  1  0
 17 18  2  0
 18 19  1  0
 19 20  2  0
 20 21  1  0
 18 22  1  0
 12 23  1  0
  8 24  1  0
 24 25  2  0
 24 26  1  0
 26 27  1  0
 27 28  1  0
 28 29  2  0
 28 30  1  0
 30 31  1  0
 31 32  1  0
 32 33  2  0
 32 34  1  0
 34 35  1  0
 35 36  1  0
 35 37  1  0
 37 38  2  0
 37 39  1  0
 31 40  1  0
 40 41  1  0
 41 42  2  0
 42 43  1  0
 43 44  2  0
 44 45  1  0
 45 46  2  0
 44 47  1  0
 27 48  1  0
 48 49  1  0
 49 50  2  0
 50 51  1  0
 51 52  2  0
 52 53  1  0
 53 54  2  0
 36  2  1  0
 46 41  1  0
 54 49  1  0
 20 14  1  0
  3 55  1  0
  4 56  1  0
  4 57  1  0
  5 58  1  0
  5 59  1  0
  6 60  1  0
  6 61  1  0
  7 62  1  0
  7 63  1  0
  8 64  1  1
  9 65  1  0
 12 66  1  1
 13 67  1  0
 13 68  1  0
 16 69  1  0
 16 70  1  0
 16 71  1  0
 17 72  1  0
 19 73  1  0
 21 74  1  0
 21 75  1  0
 21 76  1  0
 22 77  1  0
 23 78  1  0
 23 79  1  0
 26 80  1  0
 27 81  1  1
 30 82  1  0
 31 83  1  1
 34 84  1  0
 35 85  1  6
 36 86  1  0
 36 87  1  0
 39 88  1  0
 39 89  1  0
 40 90  1  0
 40 91  1  0
 42 92  1  0
 43 93  1  0
 45 94  1  0
 46 95  1  0
 48 96  1  0
 48 97  1  0
 50 98  1  0
 51 99  1  0
 52100  1  0
 53101  1  0
 54102  1  0
M  END
>  <Ligand ID>  (1) 
LIG0003751

>  <Ligand>  (1) 
CHEMBL3580748

>  <SMILES>  (1) 
O=C1NCCCC[C@@H](NC(=O)[C@H](Cc2c(C)cc(cc2C)O)N)C(=O)N[C@H](C(=O)N[C@H](C(=O)N[C@@H](C1)C(=O)N)Cc1ccc(cc1)F)Cc1ccccc1

>  <CID>  (1) 
122178425.0

>  <ChEMBL ID>  (1) 
nan

>  <InChiKey>  (1) 
LNAXFXDAZYIVOU-WUXKFAKNSA-N

>  <InChi>  (1) 
InChI=1S/C39H48FN7O7/c1-22-16-27(48)17-23(2)28(22)20-29(41)36(51)44-30-10-6-7-15-43-34(49)21-31(35(42)50)45-38(53)33(19-25-11-13-26(40)14-12-25)47-39(54)32(46-37(30)52)18-24-8-4-3-5-9-24/h3-5,8-9,11-14,16-17,29-33,48H,6-7,10,15,18-21,41H2,1-2H3,(H2,42,50)(H,43,49)(H,44,51)(H,45,53)(H,46,52)(H,47,54)/t29-,30+,31-,32-,33-/m0/s1

>  <IUPAC Name>  (1) 
(2S,5S,8S,16R)-16-[[(2S)-2-amino-3-(4-hydroxy-2,6-dimethylphenyl)propanoyl]amino]-2-benzyl-5-[(4-fluorophenyl)methyl]-3,6,10,17-tetraoxo-1,4,7,11-tetrazacycloheptadecane-8-carboxamide

$$$$
