
     RDKit          3D

 27 28  0  0  0  0  0  0  0  0999 V2000
   -4.5435   -0.4956    0.2918 N   0  0  0  0  0  0  0  0  0  0  0  0
   -3.2907   -0.3124    0.9971 C   0  0  0  0  0  0  0  0  0  0  0  0
   -2.1011   -0.4958    0.0854 C   0  0  1  0  0  0  0  0  0  0  0  0
   -1.9928    0.4444   -1.1165 C   0  0  0  0  0  0  0  0  0  0  0  0
   -1.1091    0.6242    0.0765 C   0  0  2  0  0  0  0  0  0  0  0  0
    0.3433    0.3583   -0.0003 C   0  0  0  0  0  0  0  0  0  0  0  0
    1.0940    1.2543   -0.7672 C   0  0  0  0  0  0  0  0  0  0  0  0
    2.4587    1.0989   -0.9342 C   0  0  0  0  0  0  0  0  0  0  0  0
    3.1020    0.0243   -0.3243 C   0  0  0  0  0  0  0  0  0  0  0  0
    2.3692   -0.8653    0.4351 C   0  0  0  0  0  0  0  0  0  0  0  0
    0.9946   -0.6863    0.5885 C   0  0  0  0  0  0  0  0  0  0  0  0
    0.0833   -1.9439    1.6790 Br  0  0  0  0  0  0  0  0  0  0  0  0
    4.5575   -0.2054   -0.4590 C   0  0  0  0  0  0  0  0  0  0  0  0
   -4.6651    0.3410   -0.3351 H   0  0  0  0  0  0  0  0  0  0  0  0
   -4.5582   -1.3959   -0.2549 H   0  0  0  0  0  0  0  0  0  0  0  0
   -3.2860    0.7246    1.3784 H   0  0  0  0  0  0  0  0  0  0  0  0
   -3.2465   -1.0034    1.8619 H   0  0  0  0  0  0  0  0  0  0  0  0
   -1.7148   -1.5083   -0.0620 H   0  0  0  0  0  0  0  0  0  0  0  0
   -2.8412    1.1389   -1.2836 H   0  0  0  0  0  0  0  0  0  0  0  0
   -1.5832    0.0050   -2.0437 H   0  0  0  0  0  0  0  0  0  0  0  0
   -1.3660    1.5636    0.6559 H   0  0  0  0  0  0  0  0  0  0  0  0
    0.6359    2.1044   -1.2599 H   0  0  0  0  0  0  0  0  0  0  0  0
    3.0370    1.7902   -1.5257 H   0  0  0  0  0  0  0  0  0  0  0  0
    2.8699   -1.7029    0.9108 H   0  0  0  0  0  0  0  0  0  0  0  0
    4.7313   -0.8148   -1.3855 H   0  0  0  0  0  0  0  0  0  0  0  0
    4.9187   -0.8004    0.4088 H   0  0  0  0  0  0  0  0  0  0  0  0
    5.1028    0.7583   -0.5678 H   0  0  0  0  0  0  0  0  0  0  0  0
  1  2  1  0
  2  3  1  0
  3  4  1  0
  4  5  1  0
  5  6  1  0
  6  7  2  0
  7  8  1  0
  8  9  2  0
  9 10  1  0
 10 11  2  0
 11 12  1  0
  9 13  1  0
  5  3  1  0
 11  6  1  0
  1 14  1  0
  1 15  1  0
  2 16  1  0
  2 17  1  0
  3 18  1  6
  4 19  1  0
  4 20  1  0
  5 21  1  1
  7 22  1  0
  8 23  1  0
 10 24  1  0
 13 25  1  0
 13 26  1  0
 13 27  1  0
M  END
>  <Ligand ID>  (1) 
LIG0003699

>  <Ligand>  (1) 
CHEMBL475641

>  <SMILES>  (1) 
NC[C@H]1C[C@@H]1c1ccc(cc1Br)C

>  <CID>  (1) 
44572176.0

>  <ChEMBL ID>  (1) 
nan

>  <InChiKey>  (1) 
UIQDJCLIDGLJFD-SCZZXKLOSA-N

>  <InChi>  (1) 
InChI=1S/C11H14BrN/c1-7-2-3-9(11(12)4-7)10-5-8(10)6-13/h2-4,8,10H,5-6,13H2,1H3/t8-,10+/m1/s1

>  <IUPAC Name>  (1) 
[(1S,2S)-2-(2-bromo-4-methylphenyl)cyclopropyl]methanamine

$$$$
