
     RDKit          3D

 36 36  0  0  0  0  0  0  0  0999 V2000
   -0.9737   -3.1651    0.3643 O   0  0  0  0  0  0  0  0  0  0  0  0
   -0.6100   -2.2819   -0.6416 N   0  0  0  0  0  0  0  0  0  0  0  0
   -0.9181   -2.5876   -1.8343 O   0  0  0  0  0  0  0  0  0  0  0  0
    0.0863   -1.0863   -0.3174 C   0  0  0  0  0  0  0  0  0  0  0  0
    1.4773   -1.2318   -0.3271 C   0  0  0  0  0  0  0  0  0  0  0  0
    2.1006   -2.5392   -0.7094 C   0  0  0  0  0  0  0  0  0  0  0  0
    2.3144   -0.2055    0.0135 C   0  0  0  0  0  0  0  0  0  0  0  0
    3.7355   -0.3323    0.0108 N   0  0  0  0  0  0  0  0  0  0  0  0
    4.4298   -0.3605   -1.0227 O   0  0  0  0  0  0  0  0  0  0  0  0
    4.3773   -0.4321    1.2087 O   0  0  0  0  0  0  0  0  0  0  0  0
    1.7262    0.9786    0.3664 C   0  0  0  0  0  0  0  0  0  0  0  0
    0.3173    1.1405    0.3787 C   0  0  0  0  0  0  0  0  0  0  0  0
   -0.5323    0.1219    0.0418 C   0  0  0  0  0  0  0  0  0  0  0  0
   -1.9809    0.1615   -0.0452 C   0  0  0  0  0  0  0  0  0  0  0  0
   -2.6924   -0.9015    0.7992 C   0  0  0  0  0  0  0  0  0  0  0  0
   -2.5535    1.4587    0.5515 C   0  0  0  0  0  0  0  0  0  0  0  0
   -2.5140    0.0236   -1.4582 C   0  0  0  0  0  0  0  0  0  0  0  0
   -0.0492    2.4761    0.6855 N   0  0  0  0  0  0  0  0  0  0  0  0
   -0.1538    2.9562    1.8214 O   0  0  0  0  0  0  0  0  0  0  0  0
   -0.2720    3.3259   -0.4144 O   0  0  0  0  0  0  0  0  0  0  0  0
    2.6354    2.0988    0.7305 C   0  0  0  0  0  0  0  0  0  0  0  0
    1.4908   -3.3914   -0.3354 H   0  0  0  0  0  0  0  0  0  0  0  0
    2.2423   -2.6455   -1.7891 H   0  0  0  0  0  0  0  0  0  0  0  0
    3.0846   -2.6372   -0.1906 H   0  0  0  0  0  0  0  0  0  0  0  0
   -3.0893   -1.6993    0.1530 H   0  0  0  0  0  0  0  0  0  0  0  0
   -2.1573   -1.1658    1.6905 H   0  0  0  0  0  0  0  0  0  0  0  0
   -3.6463   -0.3973    1.1666 H   0  0  0  0  0  0  0  0  0  0  0  0
   -3.7109    1.2827    0.6361 H   0  0  0  0  0  0  0  0  0  0  0  0
   -2.3117    1.5919    1.6080 H   0  0  0  0  0  0  0  0  0  0  0  0
   -2.5272    2.3080   -0.1164 H   0  0  0  0  0  0  0  0  0  0  0  0
   -1.6543   -0.0101   -2.1696 H   0  0  0  0  0  0  0  0  0  0  0  0
   -3.0835   -0.9167   -1.6112 H   0  0  0  0  0  0  0  0  0  0  0  0
   -3.2039    0.8723   -1.6880 H   0  0  0  0  0  0  0  0  0  0  0  0
    2.1259    2.8446    1.3749 H   0  0  0  0  0  0  0  0  0  0  0  0
    2.9699    2.6201   -0.1880 H   0  0  0  0  0  0  0  0  0  0  0  0
    3.5203    1.7258    1.2567 H   0  0  0  0  0  0  0  0  0  0  0  0
  1  2  1  0
  2  3  2  0
  2  4  1  0
  4  5  2  0
  5  6  1  0
  5  7  1  0
  7  8  1  0
  8  9  2  0
  8 10  1  0
  7 11  2  0
 11 12  1  0
 12 13  2  0
 13 14  1  0
 14 15  1  0
 14 16  1  0
 14 17  1  0
 12 18  1  0
 18 19  2  0
 18 20  1  0
 11 21  1  0
 13  4  1  0
  6 22  1  0
  6 23  1  0
  6 24  1  0
 15 25  1  0
 15 26  1  0
 15 27  1  0
 16 28  1  0
 16 29  1  0
 16 30  1  0
 17 31  1  0
 17 32  1  0
 17 33  1  0
 21 34  1  0
 21 35  1  0
 21 36  1  0
M  CHG  6   1  -1   2   1   8   1  10  -1  18   1  20  -1
M  END
>  <Ligand ID>  (1) 
LIG0000058

>  <Ligand>  (1) 
Musk xylol

>  <SMILES>  (1) 
[O-][N+](=O)c1c(C)c([N+](=O)[O-])c(c(c1C(C)(C)C)[N+](=O)[O-])C

>  <CID>  (1) 
62329.0

>  <ChEMBL ID>  (1) 
nan

>  <InChiKey>  (1) 
XMWRWTSZNLOZFN-UHFFFAOYSA-N

>  <InChi>  (1) 
InChI=1S/C12H15N3O6/c1-6-9(13(16)17)7(2)11(15(20)21)8(12(3,4)5)10(6)14(18)19/h1-5H3

>  <IUPAC Name>  (1) 
1-tert-butyl-3,5-dimethyl-2,4,6-trinitrobenzene

$$$$
