
     RDKit          3D

 90 93  0  0  0  0  0  0  0  0999 V2000
   -1.1971    4.7607   -3.7998 N   0  0  0  0  0  0  0  0  0  0  0  0
   -0.9959    3.5611   -4.5595 C   0  0  0  0  0  0  0  0  0  0  0  0
   -1.2381    2.3899   -4.0309 N   0  0  0  0  0  0  0  0  0  0  0  0
   -1.0153    1.2495   -4.8422 C   0  0  0  0  0  0  0  0  0  0  0  0
   -1.4421   -0.0782   -4.3025 C   0  0  0  0  0  0  0  0  0  0  0  0
   -0.7752   -0.5080   -3.0525 C   0  0  0  0  0  0  0  0  0  0  0  0
   -1.0398    0.4128   -1.8782 C   0  0  1  0  0  0  0  0  0  0  0  0
   -2.4656    0.4566   -1.5783 C   0  0  0  0  0  0  0  0  0  0  0  0
   -3.3642    0.9004   -2.3815 O   0  0  0  0  0  0  0  0  0  0  0  0
   -2.9825   -0.0090   -0.3393 N   0  0  0  0  0  0  0  0  0  0  0  0
   -4.4564    0.0285   -0.0646 C   0  0  2  0  0  0  0  0  0  0  0  0
   -4.5972    0.5916    1.2788 C   0  0  0  0  0  0  0  0  0  0  0  0
   -5.7278    0.8630    1.7109 O   0  0  0  0  0  0  0  0  0  0  0  0
   -3.4874    0.8517    2.1329 N   0  0  0  0  0  0  0  0  0  0  0  0
   -4.8358   -1.4053   -0.1427 C   0  0  0  0  0  0  0  0  0  0  0  0
   -6.2127   -1.8193    0.0887 C   0  0  0  0  0  0  0  0  0  0  0  0
   -7.1161   -2.0764   -0.9485 C   0  0  0  0  0  0  0  0  0  0  0  0
   -8.2983   -2.4566   -0.4671 N   0  0  0  0  0  0  0  0  0  0  0  0
   -8.2268   -2.4660    0.8700 C   0  0  0  0  0  0  0  0  0  0  0  0
   -6.9320   -2.0699    1.2454 C   0  0  0  0  0  0  0  0  0  0  0  0
   -6.5868   -2.0148    2.5820 C   0  0  0  0  0  0  0  0  0  0  0  0
   -7.4722   -2.3379    3.5785 C   0  0  0  0  0  0  0  0  0  0  0  0
   -8.7540   -2.7308    3.2153 C   0  0  0  0  0  0  0  0  0  0  0  0
   -9.1368   -2.7965    1.8674 C   0  0  0  0  0  0  0  0  0  0  0  0
   -0.2118   -0.0711   -0.7400 N   0  0  0  0  0  0  0  0  0  0  0  0
    1.1475    0.3226   -0.6785 C   0  0  0  0  0  0  0  0  0  0  0  0
    1.7005    1.0596   -1.5434 O   0  0  0  0  0  0  0  0  0  0  0  0
    1.9537   -0.1722    0.4682 C   0  0  2  0  0  0  0  0  0  0  0  0
    3.3341    0.0346    0.1414 N   0  0  0  0  0  0  0  0  0  0  0  0
    4.2273    0.9584    0.7239 C   0  0  0  0  0  0  0  0  0  0  0  0
    3.9629    1.7664    1.6227 O   0  0  0  0  0  0  0  0  0  0  0  0
    5.6321    0.9191    0.1667 C   0  0  2  0  0  0  0  0  0  0  0  0
    6.2673   -0.4032    0.5466 C   0  0  0  0  0  0  0  0  0  0  0  0
    7.7395   -0.0736    0.5685 C   0  0  0  0  0  0  0  0  0  0  0  0
    7.7465    1.3184    1.1759 C   0  0  0  0  0  0  0  0  0  0  0  0
    6.4710    1.9099    0.7378 N   0  0  0  0  0  0  0  0  0  0  0  0
    6.2495    3.3256    0.9127 C   0  0  0  0  0  0  0  0  0  0  0  0
    5.1316    3.8179    0.5190 O   0  0  0  0  0  0  0  0  0  0  0  0
    7.2351    4.2329    1.5135 C   0  0  0  0  0  0  0  0  0  0  0  0
    1.7204   -1.5764    0.8708 C   0  0  0  0  0  0  0  0  0  0  0  0
    2.5763   -1.9770    2.0126 C   0  0  0  0  0  0  0  0  0  0  0  0
    2.1916   -1.7685    3.3440 C   0  0  0  0  0  0  0  0  0  0  0  0
    3.0288   -2.1664    4.3814 C   0  0  0  0  0  0  0  0  0  0  0  0
    4.2530   -2.7731    4.1527 C   0  0  0  0  0  0  0  0  0  0  0  0
    4.6249   -2.9763    2.8500 C   0  0  0  0  0  0  0  0  0  0  0  0
    3.8172   -2.5925    1.8084 C   0  0  0  0  0  0  0  0  0  0  0  0
   -0.5253    3.6665   -5.9216 N   0  0  0  0  0  0  0  0  0  0  0  0
   -2.1393    5.1667   -3.6974 H   0  0  0  0  0  0  0  0  0  0  0  0
   -0.4069    5.2648   -3.3248 H   0  0  0  0  0  0  0  0  0  0  0  0
   -1.5129    1.4221   -5.8263 H   0  0  0  0  0  0  0  0  0  0  0  0
    0.0998    1.2014   -5.0287 H   0  0  0  0  0  0  0  0  0  0  0  0
   -2.5758   -0.1070   -4.2305 H   0  0  0  0  0  0  0  0  0  0  0  0
   -1.2767   -0.8574   -5.1288 H   0  0  0  0  0  0  0  0  0  0  0  0
   -1.1691   -1.5254   -2.7641 H   0  0  0  0  0  0  0  0  0  0  0  0
    0.3222   -0.5684   -3.2724 H   0  0  0  0  0  0  0  0  0  0  0  0
   -0.5428    1.3623   -2.1454 H   0  0  0  0  0  0  0  0  0  0  0  0
   -2.4378   -0.3888    0.4393 H   0  0  0  0  0  0  0  0  0  0  0  0
   -4.9645    0.6482   -0.8411 H   0  0  0  0  0  0  0  0  0  0  0  0
   -3.2246    1.8715    2.2551 H   0  0  0  0  0  0  0  0  0  0  0  0
   -2.9652    0.0811    2.6095 H   0  0  0  0  0  0  0  0  0  0  0  0
   -4.1280   -1.9676    0.5439 H   0  0  0  0  0  0  0  0  0  0  0  0
   -4.4885   -1.7881   -1.1691 H   0  0  0  0  0  0  0  0  0  0  0  0
   -6.9067   -1.9850   -2.0188 H   0  0  0  0  0  0  0  0  0  0  0  0
   -9.1637   -2.7154   -1.0143 H   0  0  0  0  0  0  0  0  0  0  0  0
   -5.5729   -1.6980    2.7966 H   0  0  0  0  0  0  0  0  0  0  0  0
   -7.1702   -2.2857    4.6237 H   0  0  0  0  0  0  0  0  0  0  0  0
   -9.5132   -3.0064    3.9641 H   0  0  0  0  0  0  0  0  0  0  0  0
  -10.1465   -3.1070    1.5892 H   0  0  0  0  0  0  0  0  0  0  0  0
   -0.5918   -0.6882   -0.0013 H   0  0  0  0  0  0  0  0  0  0  0  0
    1.6257    0.4705    1.3295 H   0  0  0  0  0  0  0  0  0  0  0  0
    3.7129   -0.5918   -0.6381 H   0  0  0  0  0  0  0  0  0  0  0  0
    5.6099    0.9820   -0.9349 H   0  0  0  0  0  0  0  0  0  0  0  0
    6.0317   -1.2056   -0.1640 H   0  0  0  0  0  0  0  0  0  0  0  0
    5.9043   -0.6452    1.5774 H   0  0  0  0  0  0  0  0  0  0  0  0
    8.3169   -0.8090    1.1749 H   0  0  0  0  0  0  0  0  0  0  0  0
    8.1202   -0.0157   -0.4718 H   0  0  0  0  0  0  0  0  0  0  0  0
    7.7108    1.2640    2.2655 H   0  0  0  0  0  0  0  0  0  0  0  0
    8.5558    1.9498    0.8072 H   0  0  0  0  0  0  0  0  0  0  0  0
    8.2195    4.1881    1.0126 H   0  0  0  0  0  0  0  0  0  0  0  0
    7.4292    3.9653    2.5932 H   0  0  0  0  0  0  0  0  0  0  0  0
    6.8760    5.2698    1.4502 H   0  0  0  0  0  0  0  0  0  0  0  0
    1.9647   -2.2831    0.0250 H   0  0  0  0  0  0  0  0  0  0  0  0
    0.6851   -1.8226    1.1631 H   0  0  0  0  0  0  0  0  0  0  0  0
    1.2550   -1.3016    3.5365 H   0  0  0  0  0  0  0  0  0  0  0  0
    2.6851   -1.9771    5.4139 H   0  0  0  0  0  0  0  0  0  0  0  0
    4.8442   -3.0518    5.0164 H   0  0  0  0  0  0  0  0  0  0  0  0
    5.5826   -3.4519    2.6834 H   0  0  0  0  0  0  0  0  0  0  0  0
    4.1288   -2.7590    0.7909 H   0  0  0  0  0  0  0  0  0  0  0  0
    0.4315    4.0158   -6.0862 H   0  0  0  0  0  0  0  0  0  0  0  0
   -1.1325    3.4006   -6.7190 H   0  0  0  0  0  0  0  0  0  0  0  0
  1  2  1  0
  2  3  2  3
  3  4  1  0
  4  5  1  0
  5  6  1  0
  6  7  1  0
  7  8  1  0
  8  9  2  0
  8 10  1  0
 10 11  1  0
 11 12  1  0
 12 13  2  0
 12 14  1  0
 11 15  1  0
 15 16  1  0
 16 17  2  0
 17 18  1  0
 18 19  1  0
 19 20  2  0
 20 21  1  0
 21 22  2  0
 22 23  1  0
 23 24  2  0
  7 25  1  0
 25 26  1  0
 26 27  2  0
 26 28  1  0
 28 29  1  0
 29 30  1  0
 30 31  2  0
 30 32  1  0
 32 33  1  0
 33 34  1  0
 34 35  1  0
 35 36  1  0
 36 37  1  0
 37 38  2  0
 37 39  1  0
 28 40  1  0
 40 41  1  0
 41 42  2  0
 42 43  1  0
 43 44  2  0
 44 45  1  0
 45 46  2  0
  2 47  1  0
 20 16  1  0
 36 32  1  0
 46 41  1  0
 24 19  1  0
  1 48  1  0
  1 49  1  0
  4 50  1  0
  4 51  1  0
  5 52  1  0
  5 53  1  0
  6 54  1  0
  6 55  1  0
  7 56  1  6
 10 57  1  0
 11 58  1  6
 14 59  1  0
 14 60  1  0
 15 61  1  0
 15 62  1  0
 17 63  1  0
 18 64  1  0
 21 65  1  0
 22 66  1  0
 23 67  1  0
 24 68  1  0
 25 69  1  0
 28 70  1  1
 29 71  1  0
 32 72  1  6
 33 73  1  0
 33 74  1  0
 34 75  1  0
 34 76  1  0
 35 77  1  0
 35 78  1  0
 39 79  1  0
 39 80  1  0
 39 81  1  0
 40 82  1  0
 40 83  1  0
 42 84  1  0
 43 85  1  0
 44 86  1  0
 45 87  1  0
 46 88  1  0
 47 89  1  0
 47 90  1  0
M  END
>  <Ligand ID>  (1) 
LIG0001460

>  <Ligand>  (1) 
CHEMBL320157

>  <SMILES>  (1) 
NC(=NCCC[C@@H](C(=O)N[C@H](C(=O)N)Cc1c[nH]c2c1cccc2)NC(=O)[C@H](NC(=O)[C@@H]1CCCN1C(=O)C)Cc1ccccc1)N

>  <CID>  (1) 
10995854.0

>  <ChEMBL ID>  (1) 
nan

>  <InChiKey>  (1) 
NSISWBCOSAKMBT-BPXGVECKSA-N

>  <InChi>  (1) 
InChI=1S/C33H43N9O5/c1-20(43)42-16-8-14-28(42)32(47)41-27(17-21-9-3-2-4-10-21)31(46)39-25(13-7-15-37-33(35)36)30(45)40-26(29(34)44)18-22-19-38-24-12-6-5-11-23(22)24/h2-6,9-12,19,25-28,38H,7-8,13-18H2,1H3,(H2,34,44)(H,39,46)(H,40,45)(H,41,47)(H4,35,36,37)/t25-,26-,27+,28-/m0/s1

>  <IUPAC Name>  (1) 
(2S)-1-acetyl-N-[(2R)-1-[[(2S)-1-[[(2S)-1-amino-3-(1H-indol-3-yl)-1-oxopropan-2-yl]amino]-5-(diaminomethylideneamino)-1-oxopentan-2-yl]amino]-1-oxo-3-phenylpropan-2-yl]pyrrolidine-2-carboxamide

$$$$
