
     RDKit          3D

 29 29  0  0  0  0  0  0  0  0999 V2000
   -3.3854    1.5007   -1.2155 N   0  0  0  0  0  0  0  0  0  0  0  0
   -3.3036    0.2274   -0.5181 C   0  0  0  0  0  0  0  0  0  0  0  0
   -1.9911    0.0810    0.1884 C   0  0  1  0  0  0  0  0  0  0  0  0
   -1.6612   -1.1216    0.9686 C   0  0  0  0  0  0  0  0  0  0  0  0
   -1.0373   -0.9376   -0.3783 C   0  0  2  0  0  0  0  0  0  0  0  0
    0.4128   -0.6593   -0.3514 C   0  0  0  0  0  0  0  0  0  0  0  0
    1.2042   -1.2164   -1.3423 C   0  0  0  0  0  0  0  0  0  0  0  0
    2.5723   -1.0055   -1.3902 C   0  0  0  0  0  0  0  0  0  0  0  0
    3.1590   -0.2059   -0.4046 C   0  0  0  0  0  0  0  0  0  0  0  0
    2.3617    0.3542    0.5922 C   0  0  0  0  0  0  0  0  0  0  0  0
    0.9879    0.1298    0.6224 C   0  0  0  0  0  0  0  0  0  0  0  0
    3.0507    1.1905    1.6038 C   0  0  0  0  0  0  0  0  0  0  0  0
    4.5047    0.0180   -0.4283 F   0  0  0  0  0  0  0  0  0  0  0  0
    0.6914    0.0000    0.0000 Cl  0  0  0  0  0  0  0  0  0  0  0  0
   -2.5616    2.0849   -0.9288 H   0  0  0  0  0  0  0  0  0  0  0  0
   -4.2613    1.9986   -0.8934 H   0  0  0  0  0  0  0  0  0  0  0  0
   -4.1297    0.0948    0.2256 H   0  0  0  0  0  0  0  0  0  0  0  0
   -3.4321   -0.6007   -1.2394 H   0  0  0  0  0  0  0  0  0  0  0  0
   -1.5786    1.0593    0.5355 H   0  0  0  0  0  0  0  0  0  0  0  0
   -2.4408   -1.9221    1.0029 H   0  0  0  0  0  0  0  0  0  0  0  0
   -1.0351   -1.0607    1.8658 H   0  0  0  0  0  0  0  0  0  0  0  0
   -1.3509   -1.5894   -1.2238 H   0  0  0  0  0  0  0  0  0  0  0  0
    0.7902   -1.8453   -2.1296 H   0  0  0  0  0  0  0  0  0  0  0  0
    3.1591   -1.4587   -2.1819 H   0  0  0  0  0  0  0  0  0  0  0  0
    0.3818    0.5807    1.4158 H   0  0  0  0  0  0  0  0  0  0  0  0
    3.2215    2.2141    1.1753 H   0  0  0  0  0  0  0  0  0  0  0  0
    2.3655    1.3471    2.4626 H   0  0  0  0  0  0  0  0  0  0  0  0
    3.9973    0.7422    1.9668 H   0  0  0  0  0  0  0  0  0  0  0  0
   -0.6914    0.0000    0.0000 H   0  0  0  0  0  0  0  0  0  0  0  0
  1  2  1  0
  2  3  1  0
  3  4  1  0
  4  5  1  0
  5  6  1  0
  6  7  2  0
  7  8  1  0
  8  9  2  0
  9 10  1  0
 10 11  2  0
 10 12  1  0
  9 13  1  0
  5  3  1  0
 11  6  1  0
  1 15  1  0
  1 16  1  0
  2 17  1  0
  2 18  1  0
  3 19  1  1
  4 20  1  0
  4 21  1  0
  5 22  1  6
  7 23  1  0
  8 24  1  0
 11 25  1  0
 12 26  1  0
 12 27  1  0
 12 28  1  0
 14 29  1  0
M  END
>  <Ligand ID>  (1) 
LIG0003619

>  <Ligand>  (1) 
CHEMBL474633

>  <SMILES>  (1) 
NC[C@H]1C[C@@H]1c1ccc(c(c1)C)F.Cl

>  <CID>  (1) 
44572171.0

>  <ChEMBL ID>  (1) 
nan

>  <InChiKey>  (1) 
OURNLOXGBUQXDQ-DHTOPLTISA-N

>  <InChi>  (1) 
InChI=1S/C11H14FN.ClH/c1-7-4-8(2-3-11(7)12)10-5-9(10)6-13;/h2-4,9-10H,5-6,13H2,1H3;1H/t9-,10-;/m1./s1

>  <IUPAC Name>  (1) 
[(1S,2S)-2-(4-fluoro-3-methylphenyl)cyclopropyl]methanamine;hydrochloride

$$$$
