
     RDKit          3D

 94 97  0  0  0  0  0  0  0  0999 V2000
    3.0598   -4.5273   -2.9120 N   0  0  0  0  0  0  0  0  0  0  0  0
    1.8448   -3.8207   -2.7119 C   0  0  0  0  0  0  0  0  0  0  0  0
    1.5824   -2.6771   -3.2602 N   0  0  0  0  0  0  0  0  0  0  0  0
    0.2825   -2.0543   -2.9662 C   0  0  0  0  0  0  0  0  0  0  0  0
    0.3789   -0.6443   -3.4344 C   0  0  0  0  0  0  0  0  0  0  0  0
    1.4775    0.0969   -2.7294 C   0  0  0  0  0  0  0  0  0  0  0  0
    1.1723    0.1206   -1.2414 C   0  0  1  0  0  0  0  0  0  0  0  0
    2.2811    0.8668   -0.5377 C   0  0  0  0  0  0  0  0  0  0  0  0
    2.1043    1.9774   -0.0018 O   0  0  0  0  0  0  0  0  0  0  0  0
    3.5732    0.2695   -0.4923 N   0  0  0  0  0  0  0  0  0  0  0  0
    4.7041    0.9575    0.1815 C   0  0  2  0  0  0  0  0  0  0  0  0
    5.7375    1.1771   -0.8324 C   0  0  0  0  0  0  0  0  0  0  0  0
    6.7819    1.8640   -0.6651 O   0  0  0  0  0  0  0  0  0  0  0  0
    5.6136    0.5900   -2.1484 N   0  0  0  0  0  0  0  0  0  0  0  0
    5.1946    0.0996    1.3005 C   0  0  0  0  0  0  0  0  0  0  0  0
    6.3158    0.5848    2.0794 C   0  0  0  0  0  0  0  0  0  0  0  0
    6.1583    1.3469    3.2489 C   0  0  0  0  0  0  0  0  0  0  0  0
    7.3886    1.6758    3.7196 N   0  0  0  0  0  0  0  0  0  0  0  0
    8.3326    1.1792    2.9363 C   0  0  0  0  0  0  0  0  0  0  0  0
    7.6819    0.5038    1.9209 C   0  0  0  0  0  0  0  0  0  0  0  0
    8.4727   -0.1193    0.9840 C   0  0  0  0  0  0  0  0  0  0  0  0
    9.8449   -0.0697    1.0569 C   0  0  0  0  0  0  0  0  0  0  0  0
   10.5036    0.6136    2.0816 C   0  0  0  0  0  0  0  0  0  0  0  0
    9.7138    1.2425    3.0279 C   0  0  0  0  0  0  0  0  0  0  0  0
   -0.0186    0.9318   -1.1028 N   0  0  0  0  0  0  0  0  0  0  0  0
   -1.2569    0.4474   -0.6008 C   0  0  0  0  0  0  0  0  0  0  0  0
   -1.4595   -0.7223   -0.2232 O   0  0  0  0  0  0  0  0  0  0  0  0
   -2.3790    1.4041   -0.5281 C   0  0  1  0  0  0  0  0  0  0  0  0
   -3.6313    0.7768   -0.1406 N   0  0  0  0  0  0  0  0  0  0  0  0
   -4.7324    0.9622   -1.0182 C   0  0  0  0  0  0  0  0  0  0  0  0
   -4.5742    1.6559   -2.0803 O   0  0  0  0  0  0  0  0  0  0  0  0
   -6.0815    0.4060   -0.8018 C   0  0  1  0  0  0  0  0  0  0  0  0
   -6.2432   -0.3633    0.3812 N   0  0  0  0  0  0  0  0  0  0  0  0
   -6.6014   -2.0132    0.1462 S   0  0  0  0  0  0  0  0  0  0  0  0
   -7.8883   -2.2187   -0.6047 O   0  0  0  0  0  0  0  0  0  0  0  0
   -6.7834   -2.7007    1.4718 O   0  0  0  0  0  0  0  0  0  0  0  0
   -5.3135   -2.8668   -0.7274 C   0  0  0  0  0  0  0  0  0  0  0  0
   -7.1568    1.4763   -0.9420 C   0  0  0  0  0  0  0  0  0  0  0  0
   -8.5174    0.9698   -0.7371 C   0  0  0  0  0  0  0  0  0  0  0  0
   -9.2446    0.8793    0.3862 N   0  0  0  0  0  0  0  0  0  0  0  0
  -10.4616    0.3406    0.0873 C   0  0  0  0  0  0  0  0  0  0  0  0
  -10.4924    0.0930   -1.2359 N   0  0  0  0  0  0  0  0  0  0  0  0
   -9.3143    0.4700   -1.7595 C   0  0  0  0  0  0  0  0  0  0  0  0
   -2.0846    2.4326    0.5578 C   0  0  0  0  0  0  0  0  0  0  0  0
   -1.9307    1.8149    1.8954 C   0  0  0  0  0  0  0  0  0  0  0  0
   -3.1043    1.6934    2.6488 C   0  0  0  0  0  0  0  0  0  0  0  0
   -3.0866    1.1319    3.9205 C   0  0  0  0  0  0  0  0  0  0  0  0
   -1.8649    0.6965    4.4161 C   0  0  0  0  0  0  0  0  0  0  0  0
   -0.6998    0.8088    3.6870 C   0  0  0  0  0  0  0  0  0  0  0  0
   -0.7384    1.3746    2.4140 C   0  0  0  0  0  0  0  0  0  0  0  0
    0.8852   -4.4544   -1.8434 N   0  0  0  0  0  0  0  0  0  0  0  0
    3.5229   -4.9056   -2.0359 H   0  0  0  0  0  0  0  0  0  0  0  0
    3.4647   -4.6606   -3.8657 H   0  0  0  0  0  0  0  0  0  0  0  0
   -0.5266   -2.5981   -3.5333 H   0  0  0  0  0  0  0  0  0  0  0  0
    0.0979   -2.2083   -1.8963 H   0  0  0  0  0  0  0  0  0  0  0  0
   -0.5841   -0.0825   -3.3263 H   0  0  0  0  0  0  0  0  0  0  0  0
    0.5761   -0.6741   -4.5303 H   0  0  0  0  0  0  0  0  0  0  0  0
    1.4193    1.1542   -3.0948 H   0  0  0  0  0  0  0  0  0  0  0  0
    2.4482   -0.3568   -2.9576 H   0  0  0  0  0  0  0  0  0  0  0  0
    1.1164   -0.8750   -0.8182 H   0  0  0  0  0  0  0  0  0  0  0  0
    3.7876   -0.6608   -0.9194 H   0  0  0  0  0  0  0  0  0  0  0  0
    4.2694    1.9235    0.5474 H   0  0  0  0  0  0  0  0  0  0  0  0
    5.8861   -0.4090   -2.3037 H   0  0  0  0  0  0  0  0  0  0  0  0
    5.2511    1.2134   -2.8828 H   0  0  0  0  0  0  0  0  0  0  0  0
    5.5441   -0.8667    0.8094 H   0  0  0  0  0  0  0  0  0  0  0  0
    4.3521   -0.1398    2.0012 H   0  0  0  0  0  0  0  0  0  0  0  0
    5.2226    1.6398    3.7211 H   0  0  0  0  0  0  0  0  0  0  0  0
    7.5511    2.2429    4.5815 H   0  0  0  0  0  0  0  0  0  0  0  0
    7.9386   -0.6510    0.1886 H   0  0  0  0  0  0  0  0  0  0  0  0
   10.4292   -0.5613    0.3173 H   0  0  0  0  0  0  0  0  0  0  0  0
   11.5911    0.6369    2.1131 H   0  0  0  0  0  0  0  0  0  0  0  0
   10.2261    1.7652    3.8114 H   0  0  0  0  0  0  0  0  0  0  0  0
    0.0708    1.9348   -1.3999 H   0  0  0  0  0  0  0  0  0  0  0  0
   -2.4629    1.9198   -1.4956 H   0  0  0  0  0  0  0  0  0  0  0  0
   -3.7365    0.2170    0.7278 H   0  0  0  0  0  0  0  0  0  0  0  0
   -6.2519   -0.3020   -1.6643 H   0  0  0  0  0  0  0  0  0  0  0  0
   -5.6719   -0.1224    1.1867 H   0  0  0  0  0  0  0  0  0  0  0  0
   -4.8235   -2.2366   -1.5000 H   0  0  0  0  0  0  0  0  0  0  0  0
   -5.7826   -3.7176   -1.2561 H   0  0  0  0  0  0  0  0  0  0  0  0
   -4.6218   -3.3099    0.0078 H   0  0  0  0  0  0  0  0  0  0  0  0
   -6.9897    1.9615   -1.9258 H   0  0  0  0  0  0  0  0  0  0  0  0
   -6.8803    2.2525   -0.1725 H   0  0  0  0  0  0  0  0  0  0  0  0
   -8.9284    1.1744    1.3377 H   0  0  0  0  0  0  0  0  0  0  0  0
  -11.2644    0.1489    0.8080 H   0  0  0  0  0  0  0  0  0  0  0  0
   -9.0927    0.3714   -2.8137 H   0  0  0  0  0  0  0  0  0  0  0  0
   -1.1633    3.0090    0.3340 H   0  0  0  0  0  0  0  0  0  0  0  0
   -2.9095    3.1837    0.5624 H   0  0  0  0  0  0  0  0  0  0  0  0
   -4.0622    2.0270    2.2762 H   0  0  0  0  0  0  0  0  0  0  0  0
   -4.0086    1.0442    4.4953 H   0  0  0  0  0  0  0  0  0  0  0  0
   -1.9006    0.2649    5.4146 H   0  0  0  0  0  0  0  0  0  0  0  0
    0.2189    0.4590    4.1110 H   0  0  0  0  0  0  0  0  0  0  0  0
    0.1586    1.4716    1.8283 H   0  0  0  0  0  0  0  0  0  0  0  0
    1.0406   -4.4236   -0.7933 H   0  0  0  0  0  0  0  0  0  0  0  0
    0.0514   -4.9340   -2.2658 H   0  0  0  0  0  0  0  0  0  0  0  0
  1  2  1  0
  2  3  2  3
  3  4  1  0
  4  5  1  0
  5  6  1  0
  6  7  1  0
  7  8  1  0
  8  9  2  0
  8 10  1  0
 10 11  1  0
 11 12  1  0
 12 13  2  0
 12 14  1  0
 11 15  1  0
 15 16  1  0
 16 17  2  0
 17 18  1  0
 18 19  1  0
 19 20  2  0
 20 21  1  0
 21 22  2  0
 22 23  1  0
 23 24  2  0
  7 25  1  0
 25 26  1  0
 26 27  2  0
 26 28  1  0
 28 29  1  0
 29 30  1  0
 30 31  2  0
 30 32  1  0
 32 33  1  0
 33 34  1  0
 34 35  2  0
 34 36  2  0
 34 37  1  0
 32 38  1  0
 38 39  1  0
 39 40  1  0
 40 41  1  0
 41 42  2  0
 42 43  1  0
 28 44  1  0
 44 45  1  0
 45 46  2  0
 46 47  1  0
 47 48  2  0
 48 49  1  0
 49 50  2  0
  2 51  1  0
 20 16  1  0
 43 39  2  0
 50 45  1  0
 24 19  1  0
  1 52  1  0
  1 53  1  0
  4 54  1  0
  4 55  1  0
  5 56  1  0
  5 57  1  0
  6 58  1  0
  6 59  1  0
  7 60  1  1
 10 61  1  0
 11 62  1  1
 14 63  1  0
 14 64  1  0
 15 65  1  0
 15 66  1  0
 17 67  1  0
 18 68  1  0
 21 69  1  0
 22 70  1  0
 23 71  1  0
 24 72  1  0
 25 73  1  0
 28 74  1  6
 29 75  1  0
 32 76  1  6
 33 77  1  0
 37 78  1  0
 37 79  1  0
 37 80  1  0
 38 81  1  0
 38 82  1  0
 40 83  1  0
 41 84  1  0
 43 85  1  0
 44 86  1  0
 44 87  1  0
 46 88  1  0
 47 89  1  0
 48 90  1  0
 49 91  1  0
 50 92  1  0
 51 93  1  0
 51 94  1  0
M  END
>  <Ligand ID>  (1) 
LIG0004921

>  <Ligand>  (1) 
CHEMBL88185

>  <SMILES>  (1) 
NC(=NCCC[C@@H](C(=O)N[C@H](C(=O)N)Cc1c[nH]c2c1cccc2)NC(=O)[C@@H](NC(=O)[C@@H](NS(=O)(=O)C)Cc1[nH]cnc1)Cc1ccccc1)N

>  <CID>  (1) 
44322786.0

>  <ChEMBL ID>  (1) 
nan

>  <InChiKey>  (1) 
IGSPGKUFVFMXQE-LJWNLINESA-N

>  <InChi>  (1) 
InChI=1S/C33H43N11O6S/c1-51(49,50)44-28(16-22-18-37-19-40-22)32(48)43-27(14-20-8-3-2-4-9-20)31(47)41-25(12-7-13-38-33(35)36)30(46)42-26(29(34)45)15-21-17-39-24-11-6-5-10-23(21)24/h2-6,8-11,17-19,25-28,39,44H,7,12-16H2,1H3,(H2,34,45)(H,37,40)(H,41,47)(H,42,46)(H,43,48)(H4,35,36,38)/t25-,26-,27-,28-/m0/s1

>  <IUPAC Name>  (1) 
(2S)-N-[(2S)-1-amino-3-(1H-indol-3-yl)-1-oxopropan-2-yl]-5-(diaminomethylideneamino)-2-[[(2S)-2-[[(2S)-3-(1H-imidazol-5-yl)-2-(methanesulfonamido)propanoyl]amino]-3-phenylpropanoyl]amino]pentanamide

$$$$
