
     RDKit          3D

 65 67  0  0  0  0  0  0  0  0999 V2000
    1.6391    1.2301    2.0745 C   0  0  0  0  0  0  0  0  0  0  0  0
    2.3848    0.7199    0.8782 C   0  0  1  0  0  0  0  0  0  0  0  0
    3.6198    0.0067    1.4385 C   0  0  0  0  0  0  0  0  0  0  0  0
    4.2325   -0.6618    0.3039 N   0  0  0  0  0  0  0  0  0  0  0  0
    3.4181   -1.7243   -0.3071 C   0  0  1  0  0  0  0  0  0  0  0  0
    2.2097   -1.0868   -0.9017 C   0  0  0  0  0  0  0  0  0  0  0  0
    1.6036   -0.1563    0.0337 N   0  0  0  0  0  0  0  0  0  0  0  0
    0.1611   -0.1625    0.0559 C   0  0  0  0  0  0  0  0  0  0  0  0
   -0.4997   -1.0256   -0.7405 N   0  0  0  0  0  0  0  0  0  0  0  0
   -1.8548   -1.0866   -0.7779 C   0  0  0  0  0  0  0  0  0  0  0  0
   -2.5730   -0.2318    0.0308 C   0  0  0  0  0  0  0  0  0  0  0  0
   -1.9070    0.6534    0.8480 C   0  0  0  0  0  0  0  0  0  0  0  0
   -0.5665    0.6452    0.8209 N   0  0  0  0  0  0  0  0  0  0  0  0
   -3.9589   -0.2093    0.0714 O   0  0  0  0  0  0  0  0  0  0  0  0
   -4.7003   -1.0828   -0.7351 C   0  0  0  0  0  0  0  0  0  0  0  0
   -6.1573   -0.8591   -0.5089 C   0  0  0  0  0  0  0  0  0  0  0  0
   -6.7739    0.0808   -1.3176 C   0  0  0  0  0  0  0  0  0  0  0  0
   -8.1070    0.3810   -1.2135 C   0  0  0  0  0  0  0  0  0  0  0  0
   -8.8450   -0.2943   -0.2558 C   0  0  0  0  0  0  0  0  0  0  0  0
   -8.2444   -1.2370    0.5611 C   0  0  0  0  0  0  0  0  0  0  0  0
   -6.8852   -1.5309    0.4419 C   0  0  0  0  0  0  0  0  0  0  0  0
  -10.5439    0.1073   -0.1436 S   0  0  0  0  0  0  0  0  0  0  0  0
  -11.0377    0.6064   -1.4782 O   0  0  0  0  0  0  0  0  0  0  0  0
  -11.3421   -1.0746    0.3266 O   0  0  0  0  0  0  0  0  0  0  0  0
  -10.7311    1.4335    1.0210 C   0  0  0  0  0  0  0  0  0  0  0  0
    4.1807   -2.5713   -1.2652 C   0  0  0  0  0  0  0  0  0  0  0  0
    5.5210   -0.3258   -0.1944 C   0  0  0  0  0  0  0  0  0  0  0  0
    6.0592   -0.9003   -1.1757 O   0  0  0  0  0  0  0  0  0  0  0  0
    6.2210    0.6813    0.4265 O   0  0  0  0  0  0  0  0  0  0  0  0
    7.5063    1.1112    0.0311 C   0  0  0  0  0  0  0  0  0  0  0  0
    7.9344    2.2373    0.9626 C   0  0  0  0  0  0  0  0  0  0  0  0
    8.5515    0.0478    0.0367 C   0  0  0  0  0  0  0  0  0  0  0  0
    7.4559    1.7464   -1.3629 C   0  0  0  0  0  0  0  0  0  0  0  0
    0.9828    2.0975    1.8300 H   0  0  0  0  0  0  0  0  0  0  0  0
    2.3825    1.4950    2.8608 H   0  0  0  0  0  0  0  0  0  0  0  0
    1.0615    0.3883    2.5065 H   0  0  0  0  0  0  0  0  0  0  0  0
    2.8127    1.5501    0.2638 H   0  0  0  0  0  0  0  0  0  0  0  0
    3.3500   -0.6954    2.2427 H   0  0  0  0  0  0  0  0  0  0  0  0
    4.3091    0.8125    1.7823 H   0  0  0  0  0  0  0  0  0  0  0  0
    3.0768   -2.3645    0.5456 H   0  0  0  0  0  0  0  0  0  0  0  0
    2.5426   -0.5684   -1.8371 H   0  0  0  0  0  0  0  0  0  0  0  0
    1.5129   -1.8888   -1.1858 H   0  0  0  0  0  0  0  0  0  0  0  0
   -2.3959   -1.7586   -1.3981 H   0  0  0  0  0  0  0  0  0  0  0  0
   -2.4648    1.3276    1.4857 H   0  0  0  0  0  0  0  0  0  0  0  0
   -4.4443   -0.9180   -1.7908 H   0  0  0  0  0  0  0  0  0  0  0  0
   -4.4401   -2.1240   -0.4490 H   0  0  0  0  0  0  0  0  0  0  0  0
   -6.2053    0.6216   -2.0774 H   0  0  0  0  0  0  0  0  0  0  0  0
   -8.5459    1.1297   -1.8742 H   0  0  0  0  0  0  0  0  0  0  0  0
   -8.8313   -1.7551    1.3030 H   0  0  0  0  0  0  0  0  0  0  0  0
   -6.3984   -2.2633    1.0704 H   0  0  0  0  0  0  0  0  0  0  0  0
  -10.6634    2.4176    0.5018 H   0  0  0  0  0  0  0  0  0  0  0  0
   -9.9072    1.4223    1.7731 H   0  0  0  0  0  0  0  0  0  0  0  0
  -11.7224    1.3869    1.5138 H   0  0  0  0  0  0  0  0  0  0  0  0
    3.5397   -3.4775   -1.4481 H   0  0  0  0  0  0  0  0  0  0  0  0
    5.0767   -2.9765   -0.7449 H   0  0  0  0  0  0  0  0  0  0  0  0
    4.3693   -2.1165   -2.2358 H   0  0  0  0  0  0  0  0  0  0  0  0
    8.7769    2.7628    0.4726 H   0  0  0  0  0  0  0  0  0  0  0  0
    7.0686    2.9556    1.0364 H   0  0  0  0  0  0  0  0  0  0  0  0
    8.1438    1.8613    1.9739 H   0  0  0  0  0  0  0  0  0  0  0  0
    8.6310   -0.5194   -0.9349 H   0  0  0  0  0  0  0  0  0  0  0  0
    8.4329   -0.6374    0.8961 H   0  0  0  0  0  0  0  0  0  0  0  0
    9.5509    0.5514    0.1248 H   0  0  0  0  0  0  0  0  0  0  0  0
    7.3536    1.0021   -2.1613 H   0  0  0  0  0  0  0  0  0  0  0  0
    8.4133    2.2841   -1.5101 H   0  0  0  0  0  0  0  0  0  0  0  0
    6.6606    2.5300   -1.4029 H   0  0  0  0  0  0  0  0  0  0  0  0
  1  2  1  0
  2  3  1  0
  3  4  1  0
  4  5  1  0
  5  6  1  0
  6  7  1  0
  7  8  1  0
  8  9  2  0
  9 10  1  0
 10 11  2  0
 11 12  1  0
 12 13  2  0
 11 14  1  0
 14 15  1  0
 15 16  1  0
 16 17  2  0
 17 18  1  0
 18 19  2  0
 19 20  1  0
 20 21  2  0
 19 22  1  0
 22 23  2  0
 22 24  2  0
 22 25  1  0
  5 26  1  0
  4 27  1  0
 27 28  2  0
 27 29  1  0
 29 30  1  0
 30 31  1  0
 30 32  1  0
 30 33  1  0
  7  2  1  0
 13  8  1  0
 21 16  1  0
  1 34  1  0
  1 35  1  0
  1 36  1  0
  2 37  1  6
  3 38  1  0
  3 39  1  0
  5 40  1  1
  6 41  1  0
  6 42  1  0
 10 43  1  0
 12 44  1  0
 15 45  1  0
 15 46  1  0
 17 47  1  0
 18 48  1  0
 20 49  1  0
 21 50  1  0
 25 51  1  0
 25 52  1  0
 25 53  1  0
 26 54  1  0
 26 55  1  0
 26 56  1  0
 31 57  1  0
 31 58  1  0
 31 59  1  0
 32 60  1  0
 32 61  1  0
 32 62  1  0
 33 63  1  0
 33 64  1  0
 33 65  1  0
M  END
>  <Ligand ID>  (1) 
LIG0005252

>  <Ligand>  (1) 
CHEMBL2086665

>  <SMILES>  (1) 
C[C@H]1CN([C@@H](CN1c1ncc(cn1)OCc1ccc(cc1)S(=O)(=O)C)C)C(=O)OC(C)(C)C

>  <CID>  (1) 
58190389.0

>  <ChEMBL ID>  (1) 
nan

>  <InChiKey>  (1) 
PIXBQEQXNYTIRX-DLBZAZTESA-N

>  <InChi>  (1) 
InChI=1S/C23H32N4O5S/c1-16-14-27(22(28)32-23(3,4)5)17(2)13-26(16)21-24-11-19(12-25-21)31-15-18-7-9-20(10-8-18)33(6,29)30/h7-12,16-17H,13-15H2,1-6H3/t16-,17+/m0/s1

>  <IUPAC Name>  (1) 
tert-butyl (2R,5S)-2,5-dimethyl-4-[5-[(4-methylsulfonylphenyl)methoxy]pyrimidin-2-yl]piperazine-1-carboxylate

$$$$
