
     RDKit          3D

 81 83  0  0  0  0  0  0  0  0999 V2000
   -3.5248   -2.1939   -2.3272 O   0  0  0  0  0  0  0  0  0  0  0  0
   -4.1814   -1.5830   -1.4480 C   0  0  0  0  0  0  0  0  0  0  0  0
   -3.6208   -0.3334   -1.0072 N   0  0  0  0  0  0  0  0  0  0  0  0
   -2.4033    0.2184   -1.5019 C   0  0  2  0  0  0  0  0  0  0  0  0
   -1.2662    0.1547   -0.5461 C   0  0  0  0  0  0  0  0  0  0  0  0
   -1.4255   -0.4720    0.5446 O   0  0  0  0  0  0  0  0  0  0  0  0
   -0.0060    0.7498   -0.7782 N   0  0  0  0  0  0  0  0  0  0  0  0
    1.1271    0.7004    0.0855 C   0  0  1  0  0  0  0  0  0  0  0  0
    2.3265    0.3114   -0.6975 C   0  0  0  0  0  0  0  0  0  0  0  0
    2.2983    0.1029   -1.9439 O   0  0  0  0  0  0  0  0  0  0  0  0
    3.5445    0.1825    0.0442 N   0  0  0  0  0  0  0  0  0  0  0  0
    4.8056   -0.2018   -0.7029 C   0  0  1  0  0  0  0  0  0  0  0  0
    5.6732    0.9681   -0.3524 C   0  0  0  0  0  0  0  0  0  0  0  0
    6.7920    1.2243   -0.8228 O   0  0  0  0  0  0  0  0  0  0  0  0
    5.2223    1.9490    0.6338 N   0  0  0  0  0  0  0  0  0  0  0  0
    5.3138   -1.4439   -0.1107 C   0  0  0  0  0  0  0  0  0  0  0  0
    6.4736   -2.1748   -0.6342 C   0  0  0  0  0  0  0  0  0  0  0  0
    7.7998   -1.5166   -0.7492 C   0  0  0  0  0  0  0  0  0  0  0  0
    8.7847   -2.5520   -1.1575 N   0  0  0  0  0  0  0  0  0  0  0  0
   10.0461   -2.2346   -1.1706 C   0  0  0  0  0  0  0  0  0  0  0  0
   10.4860   -0.9288   -0.8060 N   0  0  0  0  0  0  0  0  0  0  0  0
   11.0208   -3.1949   -1.5469 N   0  0  0  0  0  0  0  0  0  0  0  0
    1.4363    1.9959    0.8086 C   0  0  0  0  0  0  0  0  0  0  0  0
    0.3380    2.4224    1.6970 C   0  0  0  0  0  0  0  0  0  0  0  0
    0.3861    1.9303    3.0073 C   0  0  0  0  0  0  0  0  0  0  0  0
   -0.5566    2.2539    3.9489 C   0  0  0  0  0  0  0  0  0  0  0  0
   -1.5762    3.0962    3.5687 C   0  0  0  0  0  0  0  0  0  0  0  0
   -1.6621    3.6095    2.2750 C   0  0  0  0  0  0  0  0  0  0  0  0
   -0.6862    3.2578    1.3452 C   0  0  0  0  0  0  0  0  0  0  0  0
   -2.5129    1.4593   -2.2929 C   0  0  0  0  0  0  0  0  0  0  0  0
   -3.0813    2.6460   -1.6711 C   0  0  0  0  0  0  0  0  0  0  0  0
   -3.2279    3.8258   -2.3631 N   0  0  0  0  0  0  0  0  0  0  0  0
   -3.7594    4.7228   -1.5537 C   0  0  0  0  0  0  0  0  0  0  0  0
   -3.9841    4.2231   -0.3474 N   0  0  0  0  0  0  0  0  0  0  0  0
   -3.5617    2.9299   -0.4201 C   0  0  0  0  0  0  0  0  0  0  0  0
   -5.4310   -2.1059   -0.9112 C   0  0  0  0  0  0  0  0  0  0  0  0
   -6.1675   -1.5427   -0.0016 C   0  0  0  0  0  0  0  0  0  0  0  0
   -7.4264   -2.0965    0.5200 C   0  0  0  0  0  0  0  0  0  0  0  0
   -8.1345   -1.4225    1.5259 C   0  0  0  0  0  0  0  0  0  0  0  0
   -9.3168   -1.9180    2.0317 C   0  0  0  0  0  0  0  0  0  0  0  0
   -9.8483   -3.0994    1.5637 C   0  0  0  0  0  0  0  0  0  0  0  0
   -9.1616   -3.7692    0.5774 C   0  0  0  0  0  0  0  0  0  0  0  0
   -7.9756   -3.2619    0.0778 C   0  0  0  0  0  0  0  0  0  0  0  0
  -11.0305   -3.5451    2.1050 O   0  0  0  0  0  0  0  0  0  0  0  0
   -4.1699    0.1617   -0.2819 H   0  0  0  0  0  0  0  0  0  0  0  0
   -2.0781   -0.5708   -2.2916 H   0  0  0  0  0  0  0  0  0  0  0  0
    0.1040    1.2854   -1.6831 H   0  0  0  0  0  0  0  0  0  0  0  0
    1.0047   -0.0957    0.8874 H   0  0  0  0  0  0  0  0  0  0  0  0
    3.6170    0.3352    1.0640 H   0  0  0  0  0  0  0  0  0  0  0  0
    4.5248   -0.2564   -1.7406 H   0  0  0  0  0  0  0  0  0  0  0  0
    5.5643    1.8728    1.6170 H   0  0  0  0  0  0  0  0  0  0  0  0
    4.5605    2.7157    0.3368 H   0  0  0  0  0  0  0  0  0  0  0  0
    4.4443   -2.1883   -0.1300 H   0  0  0  0  0  0  0  0  0  0  0  0
    5.5373   -1.2514    0.9924 H   0  0  0  0  0  0  0  0  0  0  0  0
    6.2229   -2.6110   -1.6894 H   0  0  0  0  0  0  0  0  0  0  0  0
    6.6313   -3.1292   -0.0051 H   0  0  0  0  0  0  0  0  0  0  0  0
    8.1954   -0.9681    0.0750 H   0  0  0  0  0  0  0  0  0  0  0  0
    7.7714   -0.8075   -1.6601 H   0  0  0  0  0  0  0  0  0  0  0  0
   10.7478   -0.6578    0.1651 H   0  0  0  0  0  0  0  0  0  0  0  0
   10.5609   -0.1769   -1.5467 H   0  0  0  0  0  0  0  0  0  0  0  0
   10.9965   -3.7241   -2.4471 H   0  0  0  0  0  0  0  0  0  0  0  0
   11.8103   -3.3826   -0.8907 H   0  0  0  0  0  0  0  0  0  0  0  0
    2.3519    1.8677    1.4185 H   0  0  0  0  0  0  0  0  0  0  0  0
    1.6539    2.8116    0.0794 H   0  0  0  0  0  0  0  0  0  0  0  0
    1.1947    1.2610    3.3100 H   0  0  0  0  0  0  0  0  0  0  0  0
   -0.4997    1.8636    4.9457 H   0  0  0  0  0  0  0  0  0  0  0  0
   -2.3502    3.3890    4.2654 H   0  0  0  0  0  0  0  0  0  0  0  0
   -2.4780    4.2811    1.9907 H   0  0  0  0  0  0  0  0  0  0  0  0
   -0.7129    3.6299    0.3416 H   0  0  0  0  0  0  0  0  0  0  0  0
   -3.1903    1.2025   -3.1776 H   0  0  0  0  0  0  0  0  0  0  0  0
   -1.5385    1.6604   -2.8004 H   0  0  0  0  0  0  0  0  0  0  0  0
   -2.9676    4.0003   -3.3590 H   0  0  0  0  0  0  0  0  0  0  0  0
   -3.9842    5.7496   -1.8461 H   0  0  0  0  0  0  0  0  0  0  0  0
   -3.6104    2.2787    0.4141 H   0  0  0  0  0  0  0  0  0  0  0  0
   -5.7593   -3.0652   -1.3276 H   0  0  0  0  0  0  0  0  0  0  0  0
   -5.8547   -0.5988    0.4203 H   0  0  0  0  0  0  0  0  0  0  0  0
   -7.7737   -0.4943    1.9356 H   0  0  0  0  0  0  0  0  0  0  0  0
   -9.8440   -1.3619    2.8219 H   0  0  0  0  0  0  0  0  0  0  0  0
   -9.5761   -4.7027    0.2041 H   0  0  0  0  0  0  0  0  0  0  0  0
   -7.4977   -3.8489   -0.6975 H   0  0  0  0  0  0  0  0  0  0  0  0
  -11.9549   -3.2886    1.7938 H   0  0  0  0  0  0  0  0  0  0  0  0
  1  2  2  0
  2  3  1  0
  3  4  1  0
  4  5  1  0
  5  6  2  0
  5  7  1  0
  7  8  1  0
  8  9  1  0
  9 10  2  0
  9 11  1  0
 11 12  1  0
 12 13  1  0
 13 14  2  0
 13 15  1  0
 12 16  1  0
 16 17  1  0
 17 18  1  0
 18 19  1  0
 19 20  2  3
 20 21  1  0
 20 22  1  0
  8 23  1  0
 23 24  1  0
 24 25  2  0
 25 26  1  0
 26 27  2  0
 27 28  1  0
 28 29  2  0
  4 30  1  0
 30 31  1  0
 31 32  1  0
 32 33  1  0
 33 34  2  0
 34 35  1  0
  2 36  1  0
 36 37  2  0
 37 38  1  0
 38 39  2  0
 39 40  1  0
 40 41  2  0
 41 42  1  0
 42 43  2  0
 41 44  1  0
 29 24  1  0
 35 31  2  0
 43 38  1  0
  3 45  1  0
  4 46  1  6
  7 47  1  0
  8 48  1  1
 11 49  1  0
 12 50  1  6
 15 51  1  0
 15 52  1  0
 16 53  1  0
 16 54  1  0
 17 55  1  0
 17 56  1  0
 18 57  1  0
 18 58  1  0
 21 59  1  0
 21 60  1  0
 22 61  1  0
 22 62  1  0
 23 63  1  0
 23 64  1  0
 25 65  1  0
 26 66  1  0
 27 67  1  0
 28 68  1  0
 29 69  1  0
 30 70  1  0
 30 71  1  0
 32 72  1  0
 33 73  1  0
 35 74  1  0
 36 75  1  0
 37 76  1  0
 39 77  1  0
 40 78  1  0
 42 79  1  0
 43 80  1  0
 44 81  1  0
M  END
>  <Ligand ID>  (1) 
LIG0001254

>  <Ligand>  (1) 
CHEMBL569697

>  <SMILES>  (1) 
O=C(N[C@H](C(=O)N[C@@H](C(=O)N[C@@H](C(=O)N)CCCN=C(N)N)Cc1ccccc1)Cc1[nH]cnc1)/C=C/c1ccc(cc1)O

>  <CID>  (1) 
45487415.0

>  <ChEMBL ID>  (1) 
nan

>  <InChiKey>  (1) 
WVGXIMGLLVHHQR-FULHUOFVSA-N

>  <InChi>  (1) 
InChI=1S/C30H37N9O5/c31-27(42)23(7-4-14-35-30(32)33)38-28(43)24(15-20-5-2-1-3-6-20)39-29(44)25(16-21-17-34-18-36-21)37-26(41)13-10-19-8-11-22(40)12-9-19/h1-3,5-6,8-13,17-18,23-25,40H,4,7,14-16H2,(H2,31,42)(H,34,36)(H,37,41)(H,38,43)(H,39,44)(H4,32,33,35)/b13-10+/t23-,24-,25+/m1/s1

>  <IUPAC Name>  (1) 
(2R)-5-(diaminomethylideneamino)-2-[[(2R)-2-[[(2S)-2-[[(E)-3-(4-hydroxyphenyl)prop-2-enoyl]amino]-3-(1H-imidazol-5-yl)propanoyl]amino]-3-phenylpropanoyl]amino]pentanamide

$$$$
