
     RDKit          3D

 66 68  0  0  0  0  0  0  0  0999 V2000
   -8.2333    0.5218    0.9541 C   0  0  0  0  0  0  0  0  0  0  0  0
   -7.1182    1.4678    1.3277 C   0  0  0  0  0  0  0  0  0  0  0  0
   -5.7664    0.9466    0.8557 C   0  0  0  0  0  0  0  0  0  0  0  0
   -5.7354    0.7872   -0.5529 O   0  0  0  0  0  0  0  0  0  0  0  0
   -4.5943    0.3185   -1.2173 C   0  0  0  0  0  0  0  0  0  0  0  0
   -3.4428   -0.0110   -0.5062 C   0  0  0  0  0  0  0  0  0  0  0  0
   -2.3230   -0.4693   -1.1360 C   0  0  0  0  0  0  0  0  0  0  0  0
   -2.3582   -0.6006   -2.5146 C   0  0  0  0  0  0  0  0  0  0  0  0
   -3.5014   -0.2757   -3.2427 C   0  0  0  0  0  0  0  0  0  0  0  0
   -4.6350    0.1881   -2.6063 C   0  0  0  0  0  0  0  0  0  0  0  0
   -5.8421    0.5374   -3.3369 C   0  0  0  0  0  0  0  0  0  0  0  0
   -6.8339    0.9540   -2.6950 O   0  0  0  0  0  0  0  0  0  0  0  0
   -5.8356    0.3904   -4.7222 O   0  0  0  0  0  0  0  0  0  0  0  0
   -1.1058   -0.8202   -0.4042 C   0  0  0  0  0  0  0  0  0  0  0  0
   -0.7307   -0.1755    0.7602 C   0  0  0  0  0  0  0  0  0  0  0  0
    0.4417   -0.5828    1.3768 C   0  0  0  0  0  0  0  0  0  0  0  0
    1.2090   -1.5976    0.8462 C   0  0  0  0  0  0  0  0  0  0  0  0
    0.8227   -2.2446   -0.3317 C   0  0  0  0  0  0  0  0  0  0  0  0
   -0.3433   -1.8445   -0.9508 C   0  0  0  0  0  0  0  0  0  0  0  0
    2.4707   -2.0773    1.4629 C   0  0  0  0  0  0  0  0  0  0  0  0
    3.6738   -1.2654    0.9173 C   0  0  2  0  0  0  0  0  0  0  0  0
    3.7670   -1.4131   -0.4952 N   0  0  0  0  0  0  0  0  0  0  0  0
    4.3367   -0.4483   -1.3087 C   0  0  0  0  0  0  0  0  0  0  0  0
    5.7899   -0.1241   -1.2948 C   0  0  1  0  0  0  0  0  0  0  0  0
    6.1770    0.7393   -0.1869 C   0  0  0  0  0  0  0  0  0  0  0  0
    6.9435    0.4262    0.8968 C   0  0  0  0  0  0  0  0  0  0  0  0
    7.2498    1.3173    1.9156 C   0  0  0  0  0  0  0  0  0  0  0  0
    6.7749    2.6085    1.8778 C   0  0  0  0  0  0  0  0  0  0  0  0
    5.9968    2.9546    0.7934 C   0  0  0  0  0  0  0  0  0  0  0  0
    5.6953    2.0639   -0.2176 C   0  0  0  0  0  0  0  0  0  0  0  0
    6.6669   -1.1365   -1.5501 O   0  0  0  0  0  0  0  0  0  0  0  0
    4.8707   -2.0190    1.5407 C   0  0  0  0  0  0  0  0  0  0  0  0
   -7.0908    1.5645    2.8329 C   0  0  0  0  0  0  0  0  0  0  0  0
   -8.8034    0.1351    1.8229 H   0  0  0  0  0  0  0  0  0  0  0  0
   -7.7891   -0.2819    0.3357 H   0  0  0  0  0  0  0  0  0  0  0  0
   -8.9827    1.0173    0.2863 H   0  0  0  0  0  0  0  0  0  0  0  0
   -7.2863    2.4704    0.9260 H   0  0  0  0  0  0  0  0  0  0  0  0
   -5.0336    1.7551    1.0752 H   0  0  0  0  0  0  0  0  0  0  0  0
   -5.4441    0.0537    1.4016 H   0  0  0  0  0  0  0  0  0  0  0  0
   -3.4632    0.1071    0.5531 H   0  0  0  0  0  0  0  0  0  0  0  0
   -1.4984   -0.9614   -3.0829 H   0  0  0  0  0  0  0  0  0  0  0  0
   -3.5080   -0.3854   -4.3158 H   0  0  0  0  0  0  0  0  0  0  0  0
   -6.6278    0.7573   -5.2731 H   0  0  0  0  0  0  0  0  0  0  0  0
   -1.3601    0.6150    1.1431 H   0  0  0  0  0  0  0  0  0  0  0  0
    0.7656   -0.0914    2.3007 H   0  0  0  0  0  0  0  0  0  0  0  0
    1.4046   -3.0428   -0.7693 H   0  0  0  0  0  0  0  0  0  0  0  0
   -0.6363   -2.3549   -1.8692 H   0  0  0  0  0  0  0  0  0  0  0  0
    2.4601   -2.0168    2.5699 H   0  0  0  0  0  0  0  0  0  0  0  0
    2.6840   -3.1308    1.1935 H   0  0  0  0  0  0  0  0  0  0  0  0
    3.6716   -0.2483    1.2985 H   0  0  0  0  0  0  0  0  0  0  0  0
    3.7056   -2.3776   -0.8365 H   0  0  0  0  0  0  0  0  0  0  0  0
    3.7584    0.5402   -1.2832 H   0  0  0  0  0  0  0  0  0  0  0  0
    4.1343   -0.7845   -2.3977 H   0  0  0  0  0  0  0  0  0  0  0  0
    5.9240    0.6174   -2.2421 H   0  0  0  0  0  0  0  0  0  0  0  0
    7.3518   -0.5623    0.9993 H   0  0  0  0  0  0  0  0  0  0  0  0
    7.8652    1.0211    2.7585 H   0  0  0  0  0  0  0  0  0  0  0  0
    7.0244    3.2854    2.6798 H   0  0  0  0  0  0  0  0  0  0  0  0
    5.5976    3.9535    0.7118 H   0  0  0  0  0  0  0  0  0  0  0  0
    5.0786    2.3998   -1.0418 H   0  0  0  0  0  0  0  0  0  0  0  0
    7.2754   -1.3331   -0.8246 H   0  0  0  0  0  0  0  0  0  0  0  0
    5.3211   -1.4440    2.3684 H   0  0  0  0  0  0  0  0  0  0  0  0
    4.5880   -3.0427    1.8639 H   0  0  0  0  0  0  0  0  0  0  0  0
    5.6189   -2.1611    0.7455 H   0  0  0  0  0  0  0  0  0  0  0  0
   -7.1091    0.5760    3.3183 H   0  0  0  0  0  0  0  0  0  0  0  0
   -6.1355    2.0703    3.1618 H   0  0  0  0  0  0  0  0  0  0  0  0
   -7.9479    2.1641    3.2263 H   0  0  0  0  0  0  0  0  0  0  0  0
  1  2  1  0
  2  3  1  0
  3  4  1  0
  4  5  1  0
  5  6  2  0
  6  7  1  0
  7  8  2  0
  8  9  1  0
  9 10  2  0
 10 11  1  0
 11 12  2  0
 11 13  1  0
  7 14  1  0
 14 15  2  0
 15 16  1  0
 16 17  2  0
 17 18  1  0
 18 19  2  0
 17 20  1  0
 20 21  1  0
 21 22  1  0
 22 23  1  0
 23 24  1  0
 24 25  1  0
 25 26  2  0
 26 27  1  0
 27 28  2  0
 28 29  1  0
 29 30  2  0
 24 31  1  0
 21 32  1  0
  2 33  1  0
 10  5  1  0
 19 14  1  0
 30 25  1  0
  1 34  1  0
  1 35  1  0
  1 36  1  0
  2 37  1  0
  3 38  1  0
  3 39  1  0
  6 40  1  0
  8 41  1  0
  9 42  1  0
 13 43  1  0
 15 44  1  0
 16 45  1  0
 18 46  1  0
 19 47  1  0
 20 48  1  0
 20 49  1  0
 21 50  1  6
 22 51  1  0
 23 52  1  0
 23 53  1  0
 24 54  1  6
 26 55  1  0
 27 56  1  0
 28 57  1  0
 29 58  1  0
 30 59  1  0
 31 60  1  0
 32 61  1  0
 32 62  1  0
 32 63  1  0
 33 64  1  0
 33 65  1  0
 33 66  1  0
M  END
>  <Ligand ID>  (1) 
LIG0005456

>  <Ligand>  (1) 
CHEMBL453322

>  <SMILES>  (1) 
CC(COc1cc(ccc1C(=O)O)c1ccc(cc1)C[C@H](NC[C@@H](c1ccccc1)O)C)C

>  <CID>  (1) 
24895363.0

>  <ChEMBL ID>  (1) 
nan

>  <InChiKey>  (1) 
KLZGQNPTJAAVJS-IBVKSMDESA-N

>  <InChi>  (1) 
InChI=1S/C28H33NO4/c1-19(2)18-33-27-16-24(13-14-25(27)28(31)32)22-11-9-21(10-12-22)15-20(3)29-17-26(30)23-7-5-4-6-8-23/h4-14,16,19-20,26,29-30H,15,17-18H2,1-3H3,(H,31,32)/t20-,26+/m1/s1

>  <IUPAC Name>  (1) 
4-[4-[(2R)-2-[[(2R)-2-hydroxy-2-phenylethyl]amino]propyl]phenyl]-2-(2-methylpropoxy)benzoic acid

$$$$
