
     RDKit          3D

195202  0  0  0  0  0  0  0  0999 V2000
   10.0487   -4.4355    2.0487 N   0  0  0  0  0  0  0  0  0  0  0  0
    9.6068   -4.6857    0.7310 C   0  0  0  0  0  0  0  0  0  0  0  0
    8.9904   -5.7907    0.3872 N   0  0  0  0  0  0  0  0  0  0  0  0
    9.7995   -3.7520   -0.3092 N   0  0  0  0  0  0  0  0  0  0  0  0
    8.8560   -3.4266   -1.3281 C   0  0  0  0  0  0  0  0  0  0  0  0
    7.6773   -2.6530   -0.8149 C   0  0  0  0  0  0  0  0  0  0  0  0
    6.9289   -3.4266    0.2188 C   0  0  0  0  0  0  0  0  0  0  0  0
    5.7147   -2.6637    0.7255 C   0  0  2  0  0  0  0  0  0  0  0  0
    4.8300   -2.3535   -0.4137 N   0  0  0  0  0  0  0  0  0  0  0  0
    3.5417   -2.9418   -0.4416 C   0  0  0  0  0  0  0  0  0  0  0  0
    3.2699   -3.7259    0.4752 O   0  0  0  0  0  0  0  0  0  0  0  0
    2.5091   -2.6924   -1.4771 C   0  0  1  0  0  0  0  0  0  0  0  0
    3.0933   -3.0087   -2.8279 C   0  0  0  0  0  0  0  0  0  0  0  0
    3.5057   -4.4151   -2.9188 C   0  0  0  0  0  0  0  0  0  0  0  0
    2.5635   -5.3504   -3.3591 C   0  0  0  0  0  0  0  0  0  0  0  0
    2.8614   -6.6899   -3.4858 C   0  0  0  0  0  0  0  0  0  0  0  0
    4.1279   -7.1620   -3.1759 C   0  0  0  0  0  0  0  0  0  0  0  0
    5.0683   -6.2553   -2.7418 C   0  0  0  0  0  0  0  0  0  0  0  0
    4.7530   -4.9042   -2.6177 C   0  0  0  0  0  0  0  0  0  0  0  0
    1.3320   -3.5191   -1.2037 N   0  0  0  0  0  0  0  0  0  0  0  0
    0.0800   -2.9877   -0.7736 C   0  0  0  0  0  0  0  0  0  0  0  0
    0.0325   -1.7785   -0.6206 O   0  0  0  0  0  0  0  0  0  0  0  0
   -1.0708   -3.9560   -0.5430 C   0  0  2  0  0  0  0  0  0  0  0  0
   -1.2375   -4.7002   -1.8162 C   0  0  0  0  0  0  0  0  0  0  0  0
   -2.2903   -5.7325   -1.7583 C   0  0  0  0  0  0  0  0  0  0  0  0
   -2.6091   -6.4933   -2.8417 N   0  0  0  0  0  0  0  0  0  0  0  0
   -3.5685   -7.3768   -2.5240 C   0  0  0  0  0  0  0  0  0  0  0  0
   -3.8662   -7.1815   -1.2318 N   0  0  0  0  0  0  0  0  0  0  0  0
   -3.0910   -6.1780   -0.7501 C   0  0  0  0  0  0  0  0  0  0  0  0
   -2.2642   -3.2383   -0.1310 N   0  0  0  0  0  0  0  0  0  0  0  0
   -2.7758   -2.0775   -0.7522 C   0  0  0  0  0  0  0  0  0  0  0  0
   -2.1816   -1.6304   -1.7267 O   0  0  0  0  0  0  0  0  0  0  0  0
   -4.0217   -1.3462   -0.2850 C   0  0  1  0  0  0  0  0  0  0  0  0
   -4.5613   -2.1865    0.7804 N   0  0  0  0  0  0  0  0  0  0  0  0
   -5.7384   -2.9340    0.4728 C   0  0  0  0  0  0  0  0  0  0  0  0
   -6.2338   -2.8425   -0.7020 O   0  0  0  0  0  0  0  0  0  0  0  0
   -6.4463   -3.8124    1.4076 C   0  0  2  0  0  0  0  0  0  0  0  0
   -5.6149   -5.0213    1.7911 C   0  0  0  0  0  0  0  0  0  0  0  0
   -6.4343   -5.8530    2.7417 C   0  0  0  0  0  0  0  0  0  0  0  0
   -7.2449   -6.8190    2.1317 C   0  0  0  0  0  0  0  0  0  0  0  0
   -8.0385   -7.6329    2.9057 C   0  0  0  0  0  0  0  0  0  0  0  0
   -8.0000   -7.4577    4.2639 C   0  0  0  0  0  0  0  0  0  0  0  0
   -7.1974   -6.5011    4.8676 C   0  0  0  0  0  0  0  0  0  0  0  0
   -6.3931   -5.6755    4.1001 C   0  0  0  0  0  0  0  0  0  0  0  0
   -8.8058   -8.2822    5.0456 O   0  0  0  0  0  0  0  0  0  0  0  0
   -7.6856   -4.3111    0.8178 N   0  0  0  0  0  0  0  0  0  0  0  0
   -3.5737   -0.0633    0.2795 C   0  0  0  0  0  0  0  0  0  0  0  0
   -4.4149    0.9457    0.8126 C   0  0  0  0  0  0  0  0  0  0  0  0
   -4.3959    1.1009    2.0880 O   0  0  0  0  0  0  0  0  0  0  0  0
   -5.3409    1.8804    0.2939 N   0  0  0  0  0  0  0  0  0  0  0  0
   -5.7444    1.6975   -1.0652 C   0  0  2  0  0  0  0  0  0  0  0  0
   -6.7816    0.6053   -1.1537 C   0  0  0  0  0  0  0  0  0  0  0  0
   -7.3122    0.1956   -2.1809 O   0  0  0  0  0  0  0  0  0  0  0  0
   -7.1990   -0.0202    0.0818 N   0  0  0  0  0  0  0  0  0  0  0  0
   -4.7472    1.6589   -2.1226 C   0  0  0  0  0  0  0  0  0  0  0  0
   -5.4348    1.4664   -3.4267 C   0  0  0  0  0  0  0  0  0  0  0  0
   -5.5287    0.2339   -4.0453 C   0  0  0  0  0  0  0  0  0  0  0  0
   -6.1924    0.1241   -5.2410 C   0  0  0  0  0  0  0  0  0  0  0  0
   -6.7413    1.2638   -5.7750 C   0  0  0  0  0  0  0  0  0  0  0  0
   -6.6652    2.5080   -5.1838 C   0  0  0  0  0  0  0  0  0  0  0  0
   -6.0011    2.6151   -3.9889 C   0  0  0  0  0  0  0  0  0  0  0  0
   -7.4171    1.1656   -6.9831 O   0  0  0  0  0  0  0  0  0  0  0  0
   -5.8195    3.0521    1.0809 C   0  0  0  0  0  0  0  0  0  0  0  0
   -7.1018    3.5053    0.3046 C   0  0  0  0  0  0  0  0  0  0  0  0
   -4.9845    4.2083    0.9702 N   0  0  0  0  0  0  0  0  0  0  0  0
   -3.7537    4.5121    1.5867 C   0  0  0  0  0  0  0  0  0  0  0  0
   -3.2585    3.7247    2.3585 O   0  0  0  0  0  0  0  0  0  0  0  0
   -3.0299    5.8005    1.3100 C   0  0  2  0  0  0  0  0  0  0  0  0
   -1.8619    5.8597    2.1638 N   0  0  0  0  0  0  0  0  0  0  0  0
   -0.5550    5.8882    1.5836 C   0  0  0  0  0  0  0  0  0  0  0  0
   -0.5401    5.8200    0.3414 O   0  0  0  0  0  0  0  0  0  0  0  0
    0.6999    5.9858    2.4059 C   0  0  1  0  0  0  0  0  0  0  0  0
    1.8514    5.8572    1.4630 N   0  0  0  0  0  0  0  0  0  0  0  0
    2.7401    4.7920    1.5509 C   0  0  0  0  0  0  0  0  0  0  0  0
    2.5022    4.0665    2.6111 O   0  0  0  0  0  0  0  0  0  0  0  0
    3.8540    4.3141    0.7539 C   0  0  1  0  0  0  0  0  0  0  0  0
    4.5637    3.2384    1.4668 N   0  0  0  0  0  0  0  0  0  0  0  0
    5.0760    2.0528    0.9530 C   0  0  0  0  0  0  0  0  0  0  0  0
    4.8223    1.7542   -0.2158 O   0  0  0  0  0  0  0  0  0  0  0  0
    5.9196    1.0692    1.7168 C   0  0  1  0  0  0  0  0  0  0  0  0
    5.9004   -0.1117    0.9547 N   0  0  0  0  0  0  0  0  0  0  0  0
    6.0166   -1.4569    1.5033 C   0  0  0  0  0  0  0  0  0  0  0  0
    6.4095   -1.4477    2.6867 O   0  0  0  0  0  0  0  0  0  0  0  0
    7.1251    1.6801    2.2843 C   0  0  0  0  0  0  0  0  0  0  0  0
    8.1007    2.3138    1.3888 C   0  0  0  0  0  0  0  0  0  0  0  0
    8.1331    3.6934    1.1070 C   0  0  0  0  0  0  0  0  0  0  0  0
    9.1151    3.9459    0.2255 N   0  0  0  0  0  0  0  0  0  0  0  0
    9.7456    2.7997   -0.0962 C   0  0  0  0  0  0  0  0  0  0  0  0
    9.1192    1.8018    0.6209 C   0  0  0  0  0  0  0  0  0  0  0  0
    9.5762    0.5215    0.4838 C   0  0  0  0  0  0  0  0  0  0  0  0
   10.6455    0.2879   -0.3727 C   0  0  0  0  0  0  0  0  0  0  0  0
   11.2634    1.2737   -1.0836 C   0  0  0  0  0  0  0  0  0  0  0  0
   10.8062    2.5769   -0.9470 C   0  0  0  0  0  0  0  0  0  0  0  0
    3.5089    3.8501   -0.6543 C   0  0  0  0  0  0  0  0  0  0  0  0
    2.9647    4.8926   -1.5294 C   0  0  0  0  0  0  0  0  0  0  0  0
    2.9811    6.1223   -1.3727 O   0  0  0  0  0  0  0  0  0  0  0  0
    2.3189    4.4353   -2.7454 N   0  0  0  0  0  0  0  0  0  0  0  0
    0.7117    7.3741    2.9738 C   0  0  0  0  0  0  0  0  0  0  0  0
   -3.9637    6.9267    1.6853 C   0  0  0  0  0  0  0  0  0  0  0  0
   -3.3344    8.2556    1.4506 C   0  0  0  0  0  0  0  0  0  0  0  0
   -2.6089    8.8740    2.4660 C   0  0  0  0  0  0  0  0  0  0  0  0
   -2.0145   10.1190    2.2338 C   0  0  0  0  0  0  0  0  0  0  0  0
   -2.1701   10.6977    0.9896 C   0  0  0  0  0  0  0  0  0  0  0  0
   -2.8853   10.0869   -0.0084 C   0  0  0  0  0  0  0  0  0  0  0  0
   -3.4824    8.8547    0.1988 C   0  0  0  0  0  0  0  0  0  0  0  0
   -6.2787    2.7102    2.4175 C   0  0  0  0  0  0  0  0  0  0  0  0
   -7.0285    1.7381    2.7068 O   0  0  0  0  0  0  0  0  0  0  0  0
   -5.8733    3.5031    3.4859 O   0  0  0  0  0  0  0  0  0  0  0  0
    9.4445   -3.8181    2.6374 H   0  0  0  0  0  0  0  0  0  0  0  0
   10.9183   -4.8188    2.4706 H   0  0  0  0  0  0  0  0  0  0  0  0
    8.7765   -6.5627    1.0360 H   0  0  0  0  0  0  0  0  0  0  0  0
   10.7354   -3.2441   -0.3272 H   0  0  0  0  0  0  0  0  0  0  0  0
    8.5273   -4.4031   -1.7892 H   0  0  0  0  0  0  0  0  0  0  0  0
    9.3550   -2.8487   -2.1670 H   0  0  0  0  0  0  0  0  0  0  0  0
    7.9752   -1.6879   -0.3681 H   0  0  0  0  0  0  0  0  0  0  0  0
    6.9822   -2.4079   -1.6776 H   0  0  0  0  0  0  0  0  0  0  0  0
    7.5779   -3.5204    1.1261 H   0  0  0  0  0  0  0  0  0  0  0  0
    6.6023   -4.4220   -0.0834 H   0  0  0  0  0  0  0  0  0  0  0  0
    5.1927   -3.3781    1.4071 H   0  0  0  0  0  0  0  0  0  0  0  0
    5.0717   -1.7503   -1.1876 H   0  0  0  0  0  0  0  0  0  0  0  0
    2.2245   -1.6190   -1.3989 H   0  0  0  0  0  0  0  0  0  0  0  0
    4.0295   -2.3988   -2.9137 H   0  0  0  0  0  0  0  0  0  0  0  0
    2.4334   -2.6912   -3.6648 H   0  0  0  0  0  0  0  0  0  0  0  0
    1.5486   -5.0587   -3.6243 H   0  0  0  0  0  0  0  0  0  0  0  0
    2.1224   -7.4222   -3.8310 H   0  0  0  0  0  0  0  0  0  0  0  0
    4.4115   -8.2000   -3.2608 H   0  0  0  0  0  0  0  0  0  0  0  0
    6.0611   -6.5964   -2.4943 H   0  0  0  0  0  0  0  0  0  0  0  0
    5.5240   -4.2520   -2.2817 H   0  0  0  0  0  0  0  0  0  0  0  0
    1.3832   -4.5240   -1.3081 H   0  0  0  0  0  0  0  0  0  0  0  0
   -0.7133   -4.5525    0.3294 H   0  0  0  0  0  0  0  0  0  0  0  0
   -0.2962   -5.2546   -2.1050 H   0  0  0  0  0  0  0  0  0  0  0  0
   -1.4138   -4.0136   -2.6745 H   0  0  0  0  0  0  0  0  0  0  0  0
   -2.2011   -6.4439   -3.8074 H   0  0  0  0  0  0  0  0  0  0  0  0
   -4.0059   -8.1000   -3.2011 H   0  0  0  0  0  0  0  0  0  0  0  0
   -3.1047   -5.8155    0.2558 H   0  0  0  0  0  0  0  0  0  0  0  0
   -2.8075   -3.5578    0.6818 H   0  0  0  0  0  0  0  0  0  0  0  0
   -4.7416   -1.3098   -1.1156 H   0  0  0  0  0  0  0  0  0  0  0  0
   -4.1545   -2.2702    1.7180 H   0  0  0  0  0  0  0  0  0  0  0  0
   -6.7107   -3.2770    2.3264 H   0  0  0  0  0  0  0  0  0  0  0  0
   -4.7216   -4.6700    2.3145 H   0  0  0  0  0  0  0  0  0  0  0  0
   -5.3800   -5.6408    0.9015 H   0  0  0  0  0  0  0  0  0  0  0  0
   -7.2651   -6.9430    1.0631 H   0  0  0  0  0  0  0  0  0  0  0  0
   -8.6456   -8.3610    2.4041 H   0  0  0  0  0  0  0  0  0  0  0  0
   -7.2209   -6.4235    5.9442 H   0  0  0  0  0  0  0  0  0  0  0  0
   -5.7597   -4.9261    4.5343 H   0  0  0  0  0  0  0  0  0  0  0  0
   -9.2888   -7.9127    5.8718 H   0  0  0  0  0  0  0  0  0  0  0  0
   -8.4115   -4.4033    1.5894 H   0  0  0  0  0  0  0  0  0  0  0  0
   -8.0740   -3.6341    0.1441 H   0  0  0  0  0  0  0  0  0  0  0  0
   -2.8196   -0.4346    1.1283 H   0  0  0  0  0  0  0  0  0  0  0  0
   -2.7865    0.3983   -0.3825 H   0  0  0  0  0  0  0  0  0  0  0  0
   -6.4309    2.5906   -1.3571 H   0  0  0  0  0  0  0  0  0  0  0  0
   -6.5537   -0.2197    0.8598 H   0  0  0  0  0  0  0  0  0  0  0  0
   -8.1991   -0.2846    0.2086 H   0  0  0  0  0  0  0  0  0  0  0  0
   -3.9842    0.8576   -2.1159 H   0  0  0  0  0  0  0  0  0  0  0  0
   -4.1564    2.5971   -2.2540 H   0  0  0  0  0  0  0  0  0  0  0  0
   -5.0756   -0.6267   -3.5749 H   0  0  0  0  0  0  0  0  0  0  0  0
   -6.2854   -0.8095   -5.7523 H   0  0  0  0  0  0  0  0  0  0  0  0
   -7.1255    3.3763   -5.6621 H   0  0  0  0  0  0  0  0  0  0  0  0
   -5.9124    3.5881   -3.4783 H   0  0  0  0  0  0  0  0  0  0  0  0
   -8.4145    1.1597   -7.0748 H   0  0  0  0  0  0  0  0  0  0  0  0
   -7.7356    2.6587    0.0740 H   0  0  0  0  0  0  0  0  0  0  0  0
   -7.7241    4.1079    1.0561 H   0  0  0  0  0  0  0  0  0  0  0  0
   -6.8697    4.2354   -0.4702 H   0  0  0  0  0  0  0  0  0  0  0  0
   -5.2997    4.9913    0.3226 H   0  0  0  0  0  0  0  0  0  0  0  0
   -2.7455    5.8446    0.2321 H   0  0  0  0  0  0  0  0  0  0  0  0
   -1.8738    5.8853    3.1845 H   0  0  0  0  0  0  0  0  0  0  0  0
    0.6803    5.1889    3.1338 H   0  0  0  0  0  0  0  0  0  0  0  0
    1.9391    6.5941    0.8048 H   0  0  0  0  0  0  0  0  0  0  0  0
    4.6036    5.1214    0.5509 H   0  0  0  0  0  0  0  0  0  0  0  0
    4.6886    3.3936    2.4793 H   0  0  0  0  0  0  0  0  0  0  0  0
    5.2849    0.7766    2.6083 H   0  0  0  0  0  0  0  0  0  0  0  0
    5.8107   -0.1170   -0.0662 H   0  0  0  0  0  0  0  0  0  0  0  0
    7.7158    1.0326    2.9636 H   0  0  0  0  0  0  0  0  0  0  0  0
    6.7853    2.4829    3.0063 H   0  0  0  0  0  0  0  0  0  0  0  0
    7.4679    4.4521    1.5363 H   0  0  0  0  0  0  0  0  0  0  0  0
    9.3273    4.9019   -0.1310 H   0  0  0  0  0  0  0  0  0  0  0  0
    9.0981   -0.2473    1.0525 H   0  0  0  0  0  0  0  0  0  0  0  0
   11.0087   -0.7375   -0.4813 H   0  0  0  0  0  0  0  0  0  0  0  0
   12.1042    1.0394   -1.7501 H   0  0  0  0  0  0  0  0  0  0  0  0
   11.2693    3.4016   -1.4940 H   0  0  0  0  0  0  0  0  0  0  0  0
    4.5428    3.6548   -1.1218 H   0  0  0  0  0  0  0  0  0  0  0  0
    2.9071    2.9441   -0.6980 H   0  0  0  0  0  0  0  0  0  0  0  0
    1.3213    4.6793   -2.8659 H   0  0  0  0  0  0  0  0  0  0  0  0
    2.8945    3.8929   -3.4167 H   0  0  0  0  0  0  0  0  0  0  0  0
    0.4888    8.0769    2.1526 H   0  0  0  0  0  0  0  0  0  0  0  0
   -0.1206    7.4479    3.7059 H   0  0  0  0  0  0  0  0  0  0  0  0
    1.6980    7.5673    3.4199 H   0  0  0  0  0  0  0  0  0  0  0  0
   -4.2453    6.7979    2.7494 H   0  0  0  0  0  0  0  0  0  0  0  0
   -4.9163    6.8178    1.1201 H   0  0  0  0  0  0  0  0  0  0  0  0
   -2.4969    8.3936    3.4485 H   0  0  0  0  0  0  0  0  0  0  0  0
   -1.4505   10.6053    3.0088 H   0  0  0  0  0  0  0  0  0  0  0  0
   -1.7063   11.6588    0.8267 H   0  0  0  0  0  0  0  0  0  0  0  0
   -2.9835   10.5879   -0.9854 H   0  0  0  0  0  0  0  0  0  0  0  0
   -4.0532    8.3578   -0.5967 H   0  0  0  0  0  0  0  0  0  0  0  0
   -5.9076    3.1131    4.4322 H   0  0  0  0  0  0  0  0  0  0  0  0
  1  2  1  0
  2  3  2  3
  2  4  1  0
  4  5  1  0
  5  6  1  0
  6  7  1  0
  7  8  1  0
  8  9  1  0
  9 10  1  0
 10 11  2  0
 10 12  1  0
 12 13  1  0
 13 14  1  0
 14 15  2  0
 15 16  1  0
 16 17  2  0
 17 18  1  0
 18 19  2  0
 12 20  1  0
 20 21  1  0
 21 22  2  0
 21 23  1  0
 23 24  1  0
 24 25  1  0
 25 26  1  0
 26 27  1  0
 27 28  2  0
 28 29  1  0
 23 30  1  0
 30 31  1  0
 31 32  2  0
 31 33  1  0
 33 34  1  0
 34 35  1  0
 35 36  2  0
 35 37  1  0
 37 38  1  0
 38 39  1  0
 39 40  2  0
 40 41  1  0
 41 42  2  0
 42 43  1  0
 43 44  2  0
 42 45  1  0
 37 46  1  0
 33 47  1  0
 47 48  1  0
 48 49  2  0
 48 50  1  0
 50 51  1  0
 51 52  1  0
 52 53  2  0
 52 54  1  0
 51 55  1  0
 55 56  1  0
 56 57  2  0
 57 58  1  0
 58 59  2  0
 59 60  1  0
 60 61  2  0
 59 62  1  0
 50 63  1  0
 63 64  1  0
 63 65  1  0
 65 66  1  0
 66 67  2  0
 66 68  1  0
 68 69  1  0
 69 70  1  0
 70 71  2  0
 70 72  1  0
 72 73  1  0
 73 74  1  0
 74 75  2  0
 74 76  1  0
 76 77  1  0
 77 78  1  0
 78 79  2  0
 78 80  1  0
 80 81  1  0
 81 82  1  0
 82 83  2  0
 80 84  1  0
 84 85  1  0
 85 86  2  0
 86 87  1  0
 87 88  1  0
 88 89  2  0
 89 90  1  0
 90 91  2  0
 91 92  1  0
 92 93  2  0
 76 94  1  0
 94 95  1  0
 95 96  2  0
 95 97  1  0
 72 98  1  0
 68 99  1  0
 99100  1  0
100101  2  0
101102  1  0
102103  2  0
103104  1  0
104105  2  0
 63106  1  0
106107  2  0
106108  1  0
 82  8  1  0
 89 85  1  0
105100  1  0
 19 14  1  0
 29 25  2  0
 44 39  1  0
 61 56  1  0
 93 88  1  0
  1109  1  0
  1110  1  0
  3111  1  0
  4112  1  0
  5113  1  0
  5114  1  0
  6115  1  0
  6116  1  0
  7117  1  0
  7118  1  0
  8119  1  1
  9120  1  0
 12121  1  6
 13122  1  0
 13123  1  0
 15124  1  0
 16125  1  0
 17126  1  0
 18127  1  0
 19128  1  0
 20129  1  0
 23130  1  1
 24131  1  0
 24132  1  0
 26133  1  0
 27134  1  0
 29135  1  0
 30136  1  0
 33137  1  6
 34138  1  0
 37139  1  1
 38140  1  0
 38141  1  0
 40142  1  0
 41143  1  0
 43144  1  0
 44145  1  0
 45146  1  0
 46147  1  0
 46148  1  0
 47149  1  0
 47150  1  0
 51151  1  6
 54152  1  0
 54153  1  0
 55154  1  0
 55155  1  0
 57156  1  0
 58157  1  0
 60158  1  0
 61159  1  0
 62160  1  0
 64161  1  0
 64162  1  0
 64163  1  0
 65164  1  0
 68165  1  6
 69166  1  0
 72167  1  1
 73168  1  0
 76169  1  6
 77170  1  0
 80171  1  1
 81172  1  0
 84173  1  0
 84174  1  0
 86175  1  0
 87176  1  0
 90177  1  0
 91178  1  0
 92179  1  0
 93180  1  0
 94181  1  0
 94182  1  0
 97183  1  0
 97184  1  0
 98185  1  0
 98186  1  0
 98187  1  0
 99188  1  0
 99189  1  0
101190  1  0
102191  1  0
103192  1  0
104193  1  0
105194  1  0
108195  1  0
M  END
>  <Ligand ID>  (1) 
LIG0001121

>  <Ligand>  (1) 
CHEMBL2096819

>  <SMILES>  (1) 
NC(=N)NCCC[C@@H]1NC(=O)[C@@H](Cc2ccccc2)NC(=O)[C@H](Cc2[nH]cnc2)NC(=O)[C@@H](NC(=O)[C@H](Cc2ccc(cc2)O)N)CC(=O)N([C@H](C(=O)N)Cc2ccc(cc2)O)C(C)(NC(=O)[C@H](NC(=O)[C@@H](NC(=O)[C@@H](NC(=O)[C@@H](NC1=O)Cc1c[nH]c2c1cccc2)CC(=O)N)C)Cc1ccccc1)C(=O)O

>  <CID>  (1) 
91900695.0

>  <ChEMBL ID>  (1) 
nan

>  <InChiKey>  (1) 
VQYHLIUSSLKEAO-FNGDFXFOSA-N

>  <InChi>  (1) 
InChI=1S/C73H87N19O16/c1-39-62(98)85-53(30-41-14-7-4-8-15-41)70(106)91-73(2,71(107)108)92(58(61(76)97)31-43-21-25-47(94)26-22-43)60(96)35-57(86-63(99)49(74)28-42-19-23-46(93)24-20-42)69(105)89-55(33-45-37-79-38-82-45)68(104)87-52(29-40-12-5-3-6-13-40)66(102)84-51(18-11-27-80-72(77)78)64(100)88-54(32-44-36-81-50-17-10-9-16-48(44)50)67(103)90-56(34-59(75)95)65(101)83-39/h3-10,12-17,19-26,36-39,49,51-58,81,93-94H,11,18,27-35,74H2,1-2H3,(H2,75,95)(H2,76,97)(H,79,82)(H,83,101)(H,84,102)(H,85,98)(H,86,99)(H,87,104)(H,88,100)(H,89,105)(H,90,103)(H,91,106)(H,107,108)(H4,77,78,80)/t39-,49-,51-,52+,53+,54-,55-,56-,57-,58-,73?/m0/s1

>  <IUPAC Name>  (1) 
(5R,8S,11S,14S,17S,20R,23S,26S)-1-[(2S)-1-amino-3-(4-hydroxyphenyl)-1-oxopropan-2-yl]-26-[[(2S)-2-amino-3-(4-hydroxyphenyl)propanoyl]amino]-11-(2-amino-2-oxoethyl)-5,20-dibenzyl-17-(3-carbamimidamidopropyl)-23-(1H-imidazol-5-ylmethyl)-14-(1H-indol-3-ylmethyl)-2,8-dimethyl-4,7,10,13,16,19,22,25,28-nonaoxo-1,3,6,9,12,15,18,21,24-nonazacyclooctacosane-2-carboxylic acid

$$$$
