
     RDKit          3D

 49 51  0  0  0  0  0  0  0  0999 V2000
   -6.6588    0.8603    0.5849 C   0  0  0  0  0  0  0  0  0  0  0  0
   -6.3792    0.4988   -0.8501 C   0  0  0  0  0  0  0  0  0  0  0  0
   -6.0495   -0.9578   -1.0265 C   0  0  0  0  0  0  0  0  0  0  0  0
   -4.8226   -1.3560   -0.2329 C   0  0  0  0  0  0  0  0  0  0  0  0
   -3.7182   -0.5412   -0.7214 N   0  0  0  0  0  0  0  0  0  0  0  0
   -2.4040   -0.6864   -0.1596 C   0  0  0  0  0  0  0  0  0  0  0  0
   -2.1570   -1.5707    0.8247 N   0  0  0  0  0  0  0  0  0  0  0  0
   -0.9051   -1.7029    1.3536 C   0  0  0  0  0  0  0  0  0  0  0  0
   -0.7557   -2.6684    2.3905 N   0  0  0  0  0  0  0  0  0  0  0  0
    0.1259   -0.9495    0.9050 N   0  0  0  0  0  0  0  0  0  0  0  0
   -0.0601   -0.0555   -0.0701 C   0  0  0  0  0  0  0  0  0  0  0  0
   -1.3316    0.0670   -0.5952 C   0  0  0  0  0  0  0  0  0  0  0  0
   -1.3225    1.0101   -1.5593 N   0  0  0  0  0  0  0  0  0  0  0  0
   -0.0667    1.4909   -1.6577 C   0  0  0  0  0  0  0  0  0  0  0  0
    0.6994    0.8306   -0.7400 N   0  0  0  0  0  0  0  0  0  0  0  0
    2.0967    1.0576   -0.5337 C   0  0  2  0  0  0  0  0  0  0  0  0
    2.9084   -0.0200   -0.8878 O   0  0  0  0  0  0  0  0  0  0  0  0
    4.1506    0.4621   -0.4490 C   0  0  1  0  0  0  0  0  0  0  0  0
    3.8545    0.8043    0.9889 C   0  0  2  0  0  0  0  0  0  0  0  0
    2.4662    1.3978    0.8965 C   0  0  1  0  0  0  0  0  0  0  0  0
    2.4706    2.7917    1.0954 O   0  0  0  0  0  0  0  0  0  0  0  0
    4.7256    1.7497    1.5217 O   0  0  0  0  0  0  0  0  0  0  0  0
    5.2090   -0.5674   -0.5985 C   0  0  0  0  0  0  0  0  0  0  0  0
    5.0183   -1.7092   -1.0540 O   0  0  0  0  0  0  0  0  0  0  0  0
    6.5210   -0.2157   -0.1922 N   0  0  0  0  0  0  0  0  0  0  0  0
    7.6435   -1.1344   -0.2879 C   0  0  0  0  0  0  0  0  0  0  0  0
   -7.5700    0.3052    0.9025 H   0  0  0  0  0  0  0  0  0  0  0  0
   -6.8966    1.9442    0.6034 H   0  0  0  0  0  0  0  0  0  0  0  0
   -5.8134    0.7009    1.2616 H   0  0  0  0  0  0  0  0  0  0  0  0
   -7.3156    0.6922   -1.4106 H   0  0  0  0  0  0  0  0  0  0  0  0
   -5.6175    1.1565   -1.2799 H   0  0  0  0  0  0  0  0  0  0  0  0
   -6.9351   -1.5692   -0.7562 H   0  0  0  0  0  0  0  0  0  0  0  0
   -5.7894   -1.1016   -2.1024 H   0  0  0  0  0  0  0  0  0  0  0  0
   -5.0025   -1.1336    0.8456 H   0  0  0  0  0  0  0  0  0  0  0  0
   -4.6404   -2.4318   -0.3883 H   0  0  0  0  0  0  0  0  0  0  0  0
   -3.8265    0.1670   -1.4815 H   0  0  0  0  0  0  0  0  0  0  0  0
   -0.3524   -3.6208    2.2240 H   0  0  0  0  0  0  0  0  0  0  0  0
   -1.0599   -2.4162    3.3524 H   0  0  0  0  0  0  0  0  0  0  0  0
    0.2712    2.2679   -2.3482 H   0  0  0  0  0  0  0  0  0  0  0  0
    2.4592    1.9111   -1.1429 H   0  0  0  0  0  0  0  0  0  0  0  0
    4.3926    1.4098   -0.9769 H   0  0  0  0  0  0  0  0  0  0  0  0
    3.7837   -0.1121    1.6079 H   0  0  0  0  0  0  0  0  0  0  0  0
    1.7795    0.9237    1.6083 H   0  0  0  0  0  0  0  0  0  0  0  0
    2.0324    3.1818    0.3025 H   0  0  0  0  0  0  0  0  0  0  0  0
    4.2526    2.1832    2.2785 H   0  0  0  0  0  0  0  0  0  0  0  0
    6.7352    0.7293    0.1967 H   0  0  0  0  0  0  0  0  0  0  0  0
    8.1448   -1.1193    0.7115 H   0  0  0  0  0  0  0  0  0  0  0  0
    8.3709   -0.7812   -1.0544 H   0  0  0  0  0  0  0  0  0  0  0  0
    7.3380   -2.1728   -0.4888 H   0  0  0  0  0  0  0  0  0  0  0  0
  1  2  1  0
  2  3  1  0
  3  4  1  0
  4  5  1  0
  5  6  1  0
  6  7  2  0
  7  8  1  0
  8  9  1  0
  8 10  2  0
 10 11  1  0
 11 12  2  0
 12 13  1  0
 13 14  2  0
 14 15  1  0
 15 16  1  0
 16 17  1  0
 17 18  1  0
 18 19  1  0
 19 20  1  0
 20 21  1  0
 19 22  1  0
 18 23  1  0
 23 24  2  0
 23 25  1  0
 25 26  1  0
 12  6  1  0
 20 16  1  0
 15 11  1  0
  1 27  1  0
  1 28  1  0
  1 29  1  0
  2 30  1  0
  2 31  1  0
  3 32  1  0
  3 33  1  0
  4 34  1  0
  4 35  1  0
  5 36  1  0
  9 37  1  0
  9 38  1  0
 14 39  1  0
 16 40  1  6
 18 41  1  6
 19 42  1  1
 20 43  1  1
 21 44  1  0
 22 45  1  0
 25 46  1  0
 26 47  1  0
 26 48  1  0
 26 49  1  0
M  END
>  <Ligand ID>  (1) 
LIG0001904

>  <Ligand>  (1) 
CHEMBL3133156

>  <SMILES>  (1) 
CCCCNc1nc(N)nc2c1ncn2[C@@H]1O[C@@H]([C@H]([C@H]1O)O)C(=O)NC

>  <CID>  (1) 
76311197.0

>  <ChEMBL ID>  (1) 
nan

>  <InChiKey>  (1) 
LWXHVFUOAMOHGI-AEISUSGSSA-N

>  <InChi>  (1) 
InChI=1S/C15H23N7O4/c1-3-4-5-18-11-7-12(21-15(16)20-11)22(6-19-7)14-9(24)8(23)10(26-14)13(25)17-2/h6,8-10,14,23-24H,3-5H2,1-2H3,(H,17,25)(H3,16,18,20,21)/t8-,9+,10-,14+/m0/s1

>  <IUPAC Name>  (1) 
(2S,3S,4R,5R)-5-[2-amino-6-(butylamino)purin-9-yl]-3,4-dihydroxy-N-methyloxolane-2-carboxamide

$$$$
