
     RDKit          3D

 53 55  0  0  0  0  0  0  0  0999 V2000
   -6.5263    0.5531    0.7297 O   0  0  0  0  0  0  0  0  0  0  0  0
   -5.1998    0.6245    0.2742 C   0  0  0  0  0  0  0  0  0  0  0  0
   -4.8215    1.6564   -0.5683 C   0  0  0  0  0  0  0  0  0  0  0  0
   -3.5291    1.7833   -1.0526 C   0  0  0  0  0  0  0  0  0  0  0  0
   -2.6134    0.8110   -0.6478 C   0  0  0  0  0  0  0  0  0  0  0  0
   -2.9561   -0.2231    0.1857 C   0  0  0  0  0  0  0  0  0  0  0  0
   -4.2451   -0.3025    0.6356 C   0  0  0  0  0  0  0  0  0  0  0  0
   -1.9582   -1.2561    0.6052 C   0  0  2  0  0  0  0  0  0  0  0  0
   -2.6111   -2.5597    0.9720 C   0  0  0  0  0  0  0  0  0  0  0  0
   -1.1656   -0.7715    1.7951 C   0  0  0  0  0  0  0  0  0  0  0  0
    0.3098   -0.6385    1.4653 C   0  0  0  0  0  0  0  0  0  0  0  0
    0.5185    0.2632    0.3682 N   0  0  0  0  0  0  0  0  0  0  0  0
   -0.2933   -0.1150   -0.7976 C   0  0  2  0  0  0  0  0  0  0  0  0
   -1.2260    0.9874   -1.1942 C   0  0  0  0  0  0  0  0  0  0  0  0
   -0.9970   -1.4189   -0.5494 C   0  0  0  0  0  0  0  0  0  0  0  0
   -1.7086   -1.8167   -1.8244 C   0  0  0  0  0  0  0  0  0  0  0  0
    1.8859    0.3308   -0.0253 C   0  0  0  0  0  0  0  0  0  0  0  0
    2.7915    0.9701    0.9699 C   0  0  0  0  0  0  0  0  0  0  0  0
    4.1734    0.9438    0.3693 C   0  0  0  0  0  0  0  0  0  0  0  0
    5.0198   -0.1277    0.5650 C   0  0  0  0  0  0  0  0  0  0  0  0
    6.3015   -0.1725    0.0206 C   0  0  0  0  0  0  0  0  0  0  0  0
    6.7399    0.8975   -0.7444 C   0  0  0  0  0  0  0  0  0  0  0  0
    5.9058    2.0009   -0.9625 C   0  0  0  0  0  0  0  0  0  0  0  0
    4.6240    2.0198   -0.4040 C   0  0  0  0  0  0  0  0  0  0  0  0
    0.7666    0.0000    0.0000 Br  0  0  0  0  0  0  0  0  0  0  0  0
   -7.0120    1.4129    1.0181 H   0  0  0  0  0  0  0  0  0  0  0  0
   -5.5936    2.3704   -0.8354 H   0  0  0  0  0  0  0  0  0  0  0  0
   -3.2713    2.5961   -1.7054 H   0  0  0  0  0  0  0  0  0  0  0  0
   -4.5631   -1.0949    1.2889 H   0  0  0  0  0  0  0  0  0  0  0  0
   -3.0435   -2.4390    2.0088 H   0  0  0  0  0  0  0  0  0  0  0  0
   -1.8196   -3.3200    1.0531 H   0  0  0  0  0  0  0  0  0  0  0  0
   -3.4419   -2.8284    0.2965 H   0  0  0  0  0  0  0  0  0  0  0  0
   -1.2230   -1.4801    2.6558 H   0  0  0  0  0  0  0  0  0  0  0  0
   -1.5192    0.2094    2.1832 H   0  0  0  0  0  0  0  0  0  0  0  0
    0.7923   -1.6111    1.3600 H   0  0  0  0  0  0  0  0  0  0  0  0
    0.7751   -0.1449    2.3681 H   0  0  0  0  0  0  0  0  0  0  0  0
    0.3739   -0.2876   -1.6819 H   0  0  0  0  0  0  0  0  0  0  0  0
   -0.8445    1.9804   -0.8427 H   0  0  0  0  0  0  0  0  0  0  0  0
   -1.3291    1.0808   -2.3067 H   0  0  0  0  0  0  0  0  0  0  0  0
   -0.2493   -2.1717   -0.2992 H   0  0  0  0  0  0  0  0  0  0  0  0
   -1.6899   -0.9939   -2.5676 H   0  0  0  0  0  0  0  0  0  0  0  0
   -2.7609   -2.0836   -1.6550 H   0  0  0  0  0  0  0  0  0  0  0  0
   -1.2066   -2.6907   -2.2864 H   0  0  0  0  0  0  0  0  0  0  0  0
    1.9767    0.7670   -1.0303 H   0  0  0  0  0  0  0  0  0  0  0  0
    2.2545   -0.7317   -0.1444 H   0  0  0  0  0  0  0  0  0  0  0  0
    2.8499    0.4085    1.9197 H   0  0  0  0  0  0  0  0  0  0  0  0
    2.5870    2.0500    1.1259 H   0  0  0  0  0  0  0  0  0  0  0  0
    4.6811   -0.9678    1.1601 H   0  0  0  0  0  0  0  0  0  0  0  0
    6.8871   -1.0444    0.2254 H   0  0  0  0  0  0  0  0  0  0  0  0
    7.7490    0.8628   -1.1733 H   0  0  0  0  0  0  0  0  0  0  0  0
    6.2435    2.8372   -1.5573 H   0  0  0  0  0  0  0  0  0  0  0  0
    3.9788    2.8744   -0.5726 H   0  0  0  0  0  0  0  0  0  0  0  0
   -0.7666    0.0000    0.0000 H   0  0  0  0  0  0  0  0  0  0  0  0
  1  2  1  0
  2  3  2  0
  3  4  1  0
  4  5  2  0
  5  6  1  0
  6  7  2  0
  6  8  1  0
  8  9  1  1
  8 10  1  0
 10 11  1  0
 11 12  1  0
 12 13  1  0
 13 14  1  0
 13 15  1  0
 15 16  1  0
 12 17  1  0
 17 18  1  0
 18 19  1  0
 19 20  2  0
 20 21  1  0
 21 22  2  0
 22 23  1  0
 23 24  2  0
  7  2  1  0
 15  8  1  0
 24 19  1  0
 14  5  1  0
  1 26  1  0
  3 27  1  0
  4 28  1  0
  7 29  1  0
  9 30  1  0
  9 31  1  0
  9 32  1  0
 10 33  1  0
 10 34  1  0
 11 35  1  0
 11 36  1  0
 13 37  1  6
 14 38  1  0
 14 39  1  0
 15 40  1  0
 16 41  1  0
 16 42  1  0
 16 43  1  0
 17 44  1  0
 17 45  1  0
 18 46  1  0
 18 47  1  0
 20 48  1  0
 21 49  1  0
 22 50  1  0
 23 51  1  0
 24 52  1  0
 25 53  1  0
M  END
>  <Ligand ID>  (1) 
LIG0003578

>  <Ligand>  (1) 
MLS002320754

>  <SMILES>  (1) 
Oc1ccc2c(c1)[C@]1(C)CCN([C@H](C2)C1C)CCc1ccccc1.Br

>  <CID>  (1) 
44246752.0

>  <ChEMBL ID>  (1) 
nan

>  <InChiKey>  (1) 
MNMGNPZLUMHSKK-VZBADCDJSA-N

>  <InChi>  (1) 
InChI=1S/C22H27NO.BrH/c1-16-21-14-18-8-9-19(24)15-20(18)22(16,2)11-13-23(21)12-10-17-6-4-3-5-7-17;/h3-9,15-16,21,24H,10-14H2,1-2H3;1H/t16?,21-,22-;/m1./s1

>  <IUPAC Name>  (1) 
(1R,9R)-1,13-dimethyl-10-(2-phenylethyl)-10-azatricyclo[7.3.1.02,7]trideca-2(7),3,5-trien-4-ol;hydrobromide

$$$$
