
     RDKit          3D

 16 15  0  0  0  0  0  0  0  0999 V2000
   -2.3713    0.3691    0.6501 C   0  0  0  0  0  0  0  0  0  0  0  0
   -1.3248    0.0857   -0.3828 C   0  0  0  0  0  0  0  0  0  0  0  0
    0.0412    0.0408    0.1690 C   0  0  0  0  0  0  0  0  0  0  0  0
    0.2680    0.2200    1.3514 O   0  0  0  0  0  0  0  0  0  0  0  0
    1.1763   -0.2310   -0.7432 C   0  0  0  0  0  0  0  0  0  0  0  0
    2.5003   -0.2462   -0.0420 C   0  0  0  0  0  0  0  0  0  0  0  0
   -3.3491    0.4538    0.0967 H   0  0  0  0  0  0  0  0  0  0  0  0
   -2.4554   -0.4681    1.3578 H   0  0  0  0  0  0  0  0  0  0  0  0
   -2.1903    1.2950    1.2276 H   0  0  0  0  0  0  0  0  0  0  0  0
   -1.3823    0.7935   -1.2322 H   0  0  0  0  0  0  0  0  0  0  0  0
   -1.5822   -0.9153   -0.8180 H   0  0  0  0  0  0  0  0  0  0  0  0
    1.1955    0.5975   -1.5080 H   0  0  0  0  0  0  0  0  0  0  0  0
    0.9920   -1.1733   -1.2831 H   0  0  0  0  0  0  0  0  0  0  0  0
    2.5482    0.5496    0.7275 H   0  0  0  0  0  0  0  0  0  0  0  0
    2.6417   -1.2424    0.4228 H   0  0  0  0  0  0  0  0  0  0  0  0
    3.2921   -0.1288   -0.8175 H   0  0  0  0  0  0  0  0  0  0  0  0
  1  2  1  0
  2  3  1  0
  3  4  2  0
  3  5  1  0
  5  6  1  0
  1  7  1  0
  1  8  1  0
  1  9  1  0
  2 10  1  0
  2 11  1  0
  5 12  1  0
  5 13  1  0
  6 14  1  0
  6 15  1  0
  6 16  1  0
M  END
>  <Ligand ID>  (1) 
LIG0005008

>  <Ligand>  (1) 
3-Pentanone

>  <SMILES>  (1) 
CCC(=O)CC

>  <CID>  (1) 
7288.0

>  <ChEMBL ID>  (1) 
nan

>  <InChiKey>  (1) 
FDPIMTJIUBPUKL-UHFFFAOYSA-N

>  <InChi>  (1) 
InChI=1S/C5H10O/c1-3-5(6)4-2/h3-4H2,1-2H3

>  <IUPAC Name>  (1) 
pentan-3-one

$$$$
