
     RDKit          3D

100104  0  0  0  0  0  0  0  0999 V2000
   -4.8544    6.3857    3.5810 N   0  0  0  0  0  0  0  0  0  0  0  0
   -4.2237    5.9374    2.3659 C   0  0  0  0  0  0  0  0  0  0  0  0
   -3.8350    4.7199    2.3547 N   0  0  0  0  0  0  0  0  0  0  0  0
   -3.1785    4.1039    1.2010 C   0  0  0  0  0  0  0  0  0  0  0  0
   -1.7339    3.9082    1.5013 C   0  0  0  0  0  0  0  0  0  0  0  0
   -0.9056    3.2805    0.4766 C   0  0  0  0  0  0  0  0  0  0  0  0
   -1.0240    1.8605    0.0687 C   0  0  1  0  0  0  0  0  0  0  0  0
   -2.3062    1.4472   -0.4512 C   0  0  0  0  0  0  0  0  0  0  0  0
   -2.5184    1.6013   -1.7068 O   0  0  0  0  0  0  0  0  0  0  0  0
   -3.3850    0.8625    0.2684 N   0  0  0  0  0  0  0  0  0  0  0  0
   -4.6374    0.4747   -0.3872 C   0  0  2  0  0  0  0  0  0  0  0  0
   -5.8376    0.9685    0.2755 C   0  0  0  0  0  0  0  0  0  0  0  0
   -6.9525    0.7833   -0.2814 O   0  0  0  0  0  0  0  0  0  0  0  0
   -5.8621    1.6569    1.5239 N   0  0  0  0  0  0  0  0  0  0  0  0
   -4.6234   -1.0067   -0.6960 C   0  0  0  0  0  0  0  0  0  0  0  0
   -4.4607   -1.8831    0.4783 C   0  0  0  0  0  0  0  0  0  0  0  0
   -3.2082   -2.4077    0.8264 C   0  0  0  0  0  0  0  0  0  0  0  0
   -3.3121   -3.1481    1.9340 N   0  0  0  0  0  0  0  0  0  0  0  0
   -4.6022   -3.1135    2.3082 C   0  0  0  0  0  0  0  0  0  0  0  0
   -5.3132   -2.3440    1.4250 C   0  0  0  0  0  0  0  0  0  0  0  0
   -6.6596   -2.1780    1.6073 C   0  0  0  0  0  0  0  0  0  0  0  0
   -7.2632   -2.7931    2.6808 C   0  0  0  0  0  0  0  0  0  0  0  0
   -6.5532   -3.5633    3.5679 C   0  0  0  0  0  0  0  0  0  0  0  0
   -5.1807   -3.7496    3.4063 C   0  0  0  0  0  0  0  0  0  0  0  0
   -0.0755    1.6946   -1.1115 N   0  0  0  0  0  0  0  0  0  0  0  0
    1.1110    0.9636   -0.9268 C   0  0  0  0  0  0  0  0  0  0  0  0
    1.2934    0.4933    0.2618 O   0  0  0  0  0  0  0  0  0  0  0  0
    2.1458    0.6805   -1.8988 C   0  0  1  0  0  0  0  0  0  0  0  0
    3.3229    0.0532   -1.2306 N   0  0  0  0  0  0  0  0  0  0  0  0
    4.6400    0.5146   -1.4782 C   0  0  0  0  0  0  0  0  0  0  0  0
    4.8074    1.4642   -2.2852 O   0  0  0  0  0  0  0  0  0  0  0  0
    5.7773   -0.1039   -0.8101 C   0  0  1  0  0  0  0  0  0  0  0  0
    5.3433   -1.0564    0.1927 N   0  0  0  0  0  0  0  0  0  0  0  0
    5.4694   -2.4318    0.2319 C   0  0  0  0  0  0  0  0  0  0  0  0
    6.0015   -3.1604   -0.6622 O   0  0  0  0  0  0  0  0  0  0  0  0
    4.9605   -3.1991    1.3917 C   0  0  0  0  0  0  0  0  0  0  0  0
    4.3948   -2.6108    2.4973 C   0  0  0  0  0  0  0  0  0  0  0  0
    3.9186   -3.3628    3.5699 C   0  0  0  0  0  0  0  0  0  0  0  0
    3.9973   -4.7173    3.5618 C   0  0  0  0  0  0  0  0  0  0  0  0
    4.5570   -5.3409    2.4738 C   0  0  0  0  0  0  0  0  0  0  0  0
    5.0267   -4.5936    1.4147 C   0  0  0  0  0  0  0  0  0  0  0  0
    6.6512   -0.8008   -1.8753 C   0  0  0  0  0  0  0  0  0  0  0  0
    7.8677   -1.3630   -1.2935 C   0  0  0  0  0  0  0  0  0  0  0  0
    8.7815   -2.0614   -2.0277 N   0  0  0  0  0  0  0  0  0  0  0  0
    9.8073   -2.4116   -1.2243 C   0  0  0  0  0  0  0  0  0  0  0  0
    9.5819   -1.9560    0.0257 N   0  0  0  0  0  0  0  0  0  0  0  0
    8.3846   -1.3045   -0.0025 C   0  0  0  0  0  0  0  0  0  0  0  0
    1.8145   -0.3120   -2.9824 C   0  0  0  0  0  0  0  0  0  0  0  0
    0.6729    0.1099   -3.8094 C   0  0  0  0  0  0  0  0  0  0  0  0
   -0.6342   -0.2530   -3.5852 C   0  0  0  0  0  0  0  0  0  0  0  0
   -1.6183    0.1934   -4.4454 C   0  0  0  0  0  0  0  0  0  0  0  0
   -1.3594    0.9971   -5.5361 C   0  0  0  0  0  0  0  0  0  0  0  0
   -0.0511    1.3621   -5.7610 C   0  0  0  0  0  0  0  0  0  0  0  0
    0.9554    0.9238   -4.9070 C   0  0  0  0  0  0  0  0  0  0  0  0
   -4.0773    6.8446    1.2884 N   0  0  0  0  0  0  0  0  0  0  0  0
   -5.7236    5.9096    3.9185 H   0  0  0  0  0  0  0  0  0  0  0  0
   -4.4808    7.1682    4.1502 H   0  0  0  0  0  0  0  0  0  0  0  0
   -3.2089    4.9334    0.4043 H   0  0  0  0  0  0  0  0  0  0  0  0
   -3.7447    3.2938    0.7812 H   0  0  0  0  0  0  0  0  0  0  0  0
   -1.3059    4.9447    1.6782 H   0  0  0  0  0  0  0  0  0  0  0  0
   -1.6016    3.4116    2.5221 H   0  0  0  0  0  0  0  0  0  0  0  0
   -0.9510    3.9618   -0.4621 H   0  0  0  0  0  0  0  0  0  0  0  0
    0.2174    3.4151    0.7159 H   0  0  0  0  0  0  0  0  0  0  0  0
   -0.6866    1.1563    0.8651 H   0  0  0  0  0  0  0  0  0  0  0  0
   -3.2499    0.7184    1.2883 H   0  0  0  0  0  0  0  0  0  0  0  0
   -4.5874    0.9625   -1.4111 H   0  0  0  0  0  0  0  0  0  0  0  0
   -6.4087    2.5467    1.5515 H   0  0  0  0  0  0  0  0  0  0  0  0
   -5.3608    1.2996    2.3756 H   0  0  0  0  0  0  0  0  0  0  0  0
   -5.5709   -1.2530   -1.2449 H   0  0  0  0  0  0  0  0  0  0  0  0
   -3.8191   -1.1823   -1.4462 H   0  0  0  0  0  0  0  0  0  0  0  0
   -2.2671   -2.2651    0.3066 H   0  0  0  0  0  0  0  0  0  0  0  0
   -2.5199   -3.6589    2.4126 H   0  0  0  0  0  0  0  0  0  0  0  0
   -7.1971   -1.5868    0.9098 H   0  0  0  0  0  0  0  0  0  0  0  0
   -8.3184   -2.6723    2.8374 H   0  0  0  0  0  0  0  0  0  0  0  0
   -6.9889   -4.0641    4.4200 H   0  0  0  0  0  0  0  0  0  0  0  0
   -4.5985   -4.3548    4.0912 H   0  0  0  0  0  0  0  0  0  0  0  0
   -0.3039    2.1170   -2.0183 H   0  0  0  0  0  0  0  0  0  0  0  0
    2.5194    1.6139   -2.3553 H   0  0  0  0  0  0  0  0  0  0  0  0
    3.1924   -0.7404   -0.5665 H   0  0  0  0  0  0  0  0  0  0  0  0
    6.4730    0.5946   -0.3667 H   0  0  0  0  0  0  0  0  0  0  0  0
    4.8482   -0.5857    1.0225 H   0  0  0  0  0  0  0  0  0  0  0  0
    4.2951   -1.5521    2.5913 H   0  0  0  0  0  0  0  0  0  0  0  0
    3.4716   -2.8739    4.4287 H   0  0  0  0  0  0  0  0  0  0  0  0
    3.6247   -5.2929    4.4051 H   0  0  0  0  0  0  0  0  0  0  0  0
    4.6413   -6.4230    2.4159 H   0  0  0  0  0  0  0  0  0  0  0  0
    5.4687   -5.1273    0.5669 H   0  0  0  0  0  0  0  0  0  0  0  0
    6.0518   -1.5251   -2.4706 H   0  0  0  0  0  0  0  0  0  0  0  0
    6.9346    0.0162   -2.5706 H   0  0  0  0  0  0  0  0  0  0  0  0
    8.6996   -2.2887   -3.0539 H   0  0  0  0  0  0  0  0  0  0  0  0
   10.6703   -2.9822   -1.5889 H   0  0  0  0  0  0  0  0  0  0  0  0
    7.8802   -0.8064    0.8188 H   0  0  0  0  0  0  0  0  0  0  0  0
    2.7078   -0.4479   -3.6685 H   0  0  0  0  0  0  0  0  0  0  0  0
    1.5965   -1.3128   -2.6051 H   0  0  0  0  0  0  0  0  0  0  0  0
   -0.8287   -0.8836   -2.7279 H   0  0  0  0  0  0  0  0  0  0  0  0
   -2.6271   -0.1254   -4.2157 H   0  0  0  0  0  0  0  0  0  0  0  0
   -2.1381    1.3356   -6.1919 H   0  0  0  0  0  0  0  0  0  0  0  0
    0.2301    1.9914   -6.5952 H   0  0  0  0  0  0  0  0  0  0  0  0
    1.9838    1.2249   -5.1008 H   0  0  0  0  0  0  0  0  0  0  0  0
   -4.5871    6.6332    0.4063 H   0  0  0  0  0  0  0  0  0  0  0  0
   -3.4690    7.6978    1.3912 H   0  0  0  0  0  0  0  0  0  0  0  0
  1  2  1  0
  2  3  2  3
  3  4  1  0
  4  5  1  0
  5  6  1  0
  6  7  1  0
  7  8  1  0
  8  9  2  0
  8 10  1  0
 10 11  1  0
 11 12  1  0
 12 13  2  0
 12 14  1  0
 11 15  1  0
 15 16  1  0
 16 17  2  0
 17 18  1  0
 18 19  1  0
 19 20  2  0
 20 21  1  0
 21 22  2  0
 22 23  1  0
 23 24  2  0
  7 25  1  0
 25 26  1  0
 26 27  2  0
 26 28  1  0
 28 29  1  0
 29 30  1  0
 30 31  2  0
 30 32  1  0
 32 33  1  0
 33 34  1  0
 34 35  2  0
 34 36  1  0
 36 37  2  0
 37 38  1  0
 38 39  2  0
 39 40  1  0
 40 41  2  0
 32 42  1  0
 42 43  1  0
 43 44  1  0
 44 45  1  0
 45 46  2  0
 46 47  1  0
 28 48  1  0
 48 49  1  0
 49 50  2  0
 50 51  1  0
 51 52  2  0
 52 53  1  0
 53 54  2  0
  2 55  1  0
 20 16  1  0
 41 36  1  0
 47 43  2  0
 54 49  1  0
 24 19  1  0
  1 56  1  0
  1 57  1  0
  4 58  1  0
  4 59  1  0
  5 60  1  0
  5 61  1  0
  6 62  1  0
  6 63  1  0
  7 64  1  1
 10 65  1  0
 11 66  1  6
 14 67  1  0
 14 68  1  0
 15 69  1  0
 15 70  1  0
 17 71  1  0
 18 72  1  0
 21 73  1  0
 22 74  1  0
 23 75  1  0
 24 76  1  0
 25 77  1  0
 28 78  1  6
 29 79  1  0
 32 80  1  1
 33 81  1  0
 37 82  1  0
 38 83  1  0
 39 84  1  0
 40 85  1  0
 41 86  1  0
 42 87  1  0
 42 88  1  0
 44 89  1  0
 45 90  1  0
 47 91  1  0
 48 92  1  0
 48 93  1  0
 50 94  1  0
 51 95  1  0
 52 96  1  0
 53 97  1  0
 54 98  1  0
 55 99  1  0
 55100  1  0
M  END
>  <Ligand ID>  (1) 
LIG0002640

>  <Ligand>  (1) 
CHEMBL316259

>  <SMILES>  (1) 
NC(=NCCC[C@@H](C(=O)N[C@H](C(=O)N)Cc1c[nH]c2c1cccc2)NC(=O)[C@@H](NC(=O)[C@@H](NC(=O)c1ccccc1)Cc1[nH]cnc1)Cc1ccccc1)N

>  <CID>  (1) 
44323033.0

>  <ChEMBL ID>  (1) 
nan

>  <InChiKey>  (1) 
PJDCKQFLLOIVHJ-YRCZKMHPSA-N

>  <InChi>  (1) 
InChI=1S/C39H45N11O5/c40-34(51)31(19-26-21-45-29-15-8-7-14-28(26)29)48-36(53)30(16-9-17-44-39(41)42)47-37(54)32(18-24-10-3-1-4-11-24)50-38(55)33(20-27-22-43-23-46-27)49-35(52)25-12-5-2-6-13-25/h1-8,10-15,21-23,30-33,45H,9,16-20H2,(H2,40,51)(H,43,46)(H,47,54)(H,48,53)(H,49,52)(H,50,55)(H4,41,42,44)/t30-,31-,32-,33-/m0/s1

>  <IUPAC Name>  (1) 
N-[(2S)-1-[[(2S)-1-[[(2S)-1-[[(2S)-1-amino-3-(1H-indol-3-yl)-1-oxopropan-2-yl]amino]-5-(diaminomethylideneamino)-1-oxopentan-2-yl]amino]-1-oxo-3-phenylpropan-2-yl]amino]-3-(1H-imidazol-5-yl)-1-oxopropan-2-yl]benzamide

$$$$
