
     RDKit          3D

 65 69  0  0  0  0  0  0  0  0999 V2000
   -7.3675    2.6115   -2.1020 C   0  0  0  0  0  0  0  0  0  0  0  0
   -6.1271    2.2628   -1.5375 O   0  0  0  0  0  0  0  0  0  0  0  0
   -5.4462    1.0985   -1.8153 C   0  0  0  0  0  0  0  0  0  0  0  0
   -5.8796    0.1206   -2.6777 C   0  0  0  0  0  0  0  0  0  0  0  0
   -5.1353   -1.0290   -2.9066 C   0  0  0  0  0  0  0  0  0  0  0  0
   -3.9151   -1.2002   -2.2460 C   0  0  0  0  0  0  0  0  0  0  0  0
   -3.4640   -0.2106   -1.3655 C   0  0  0  0  0  0  0  0  0  0  0  0
   -4.2356    0.9030   -1.1755 C   0  0  0  0  0  0  0  0  0  0  0  0
   -2.1983   -0.3676   -0.6655 C   0  0  0  0  0  0  0  0  0  0  0  0
   -1.0130   -0.4961   -1.3614 C   0  0  0  0  0  0  0  0  0  0  0  0
    0.1093   -0.6370   -0.6599 N   0  0  0  0  0  0  0  0  0  0  0  0
    0.2001   -0.6659    0.6381 N   0  0  0  0  0  0  0  0  0  0  0  0
   -0.9490   -0.5419    1.3585 C   0  0  0  0  0  0  0  0  0  0  0  0
   -0.9297   -0.5620    2.6322 O   0  0  0  0  0  0  0  0  0  0  0  0
   -2.1599   -0.3916    0.7136 C   0  0  0  0  0  0  0  0  0  0  0  0
   -3.4274   -0.2562    1.4221 C   0  0  0  0  0  0  0  0  0  0  0  0
   -3.7187    0.7702    2.2819 C   0  0  0  0  0  0  0  0  0  0  0  0
   -4.9538    0.8059    2.9057 C   0  0  0  0  0  0  0  0  0  0  0  0
   -5.8737   -0.2071    2.6427 C   0  0  0  0  0  0  0  0  0  0  0  0
   -5.6019   -1.2483    1.7820 C   0  0  0  0  0  0  0  0  0  0  0  0
   -4.3702   -1.2608    1.1759 C   0  0  0  0  0  0  0  0  0  0  0  0
    1.4138   -0.8236    1.3952 C   0  0  0  0  0  0  0  0  0  0  0  0
    2.0170    0.5312    1.6965 C   0  0  0  0  0  0  0  0  0  0  0  0
    3.2798    0.3759    2.4885 C   0  0  0  0  0  0  0  0  0  0  0  0
    4.5194    0.8829    1.7841 C   0  0  0  0  0  0  0  0  0  0  0  0
    4.5238    0.2997    0.4174 C   0  0  0  0  0  0  0  0  0  0  0  0
    3.3478    0.4782   -0.3190 C   0  0  0  0  0  0  0  0  0  0  0  0
    2.2625    1.2167    0.3619 C   0  0  0  0  0  0  0  0  0  0  0  0
    3.2512   -0.0240   -1.5997 C   0  0  0  0  0  0  0  0  0  0  0  0
    4.3391   -0.7092   -2.1449 C   0  0  0  0  0  0  0  0  0  0  0  0
    5.4864   -0.8642   -1.3800 C   0  0  0  0  0  0  0  0  0  0  0  0
    5.6121   -0.3774   -0.1087 C   0  0  0  0  0  0  0  0  0  0  0  0
    6.7252   -0.5043    0.6911 O   0  0  0  0  0  0  0  0  0  0  0  0
    7.8613   -1.1600    0.2318 C   0  0  0  0  0  0  0  0  0  0  0  0
    8.5079   -0.5404   -0.9497 C   0  0  0  0  0  0  0  0  0  0  0  0
    8.1254    0.5259   -1.4898 O   0  0  0  0  0  0  0  0  0  0  0  0
    9.6129   -1.2052   -1.4786 O   0  0  0  0  0  0  0  0  0  0  0  0
   -7.2169    3.2839   -2.9932 H   0  0  0  0  0  0  0  0  0  0  0  0
   -7.9420    3.1802   -1.3286 H   0  0  0  0  0  0  0  0  0  0  0  0
   -7.9502    1.7458   -2.4506 H   0  0  0  0  0  0  0  0  0  0  0  0
   -6.8206    0.2417   -3.1943 H   0  0  0  0  0  0  0  0  0  0  0  0
   -5.4609   -1.8096   -3.5823 H   0  0  0  0  0  0  0  0  0  0  0  0
   -3.2912   -2.0531   -2.3709 H   0  0  0  0  0  0  0  0  0  0  0  0
   -3.8677    1.6642   -0.4863 H   0  0  0  0  0  0  0  0  0  0  0  0
   -0.9965   -0.4827   -2.4423 H   0  0  0  0  0  0  0  0  0  0  0  0
   -2.9814    1.5348    2.4597 H   0  0  0  0  0  0  0  0  0  0  0  0
   -5.2277    1.6094    3.6013 H   0  0  0  0  0  0  0  0  0  0  0  0
   -6.8384   -0.1619    3.1419 H   0  0  0  0  0  0  0  0  0  0  0  0
   -6.3446   -2.0059    1.6123 H   0  0  0  0  0  0  0  0  0  0  0  0
   -4.1649   -2.0804    0.5025 H   0  0  0  0  0  0  0  0  0  0  0  0
    1.2719   -1.4389    2.3051 H   0  0  0  0  0  0  0  0  0  0  0  0
    2.1169   -1.4189    0.7454 H   0  0  0  0  0  0  0  0  0  0  0  0
    1.2925    1.1073    2.2905 H   0  0  0  0  0  0  0  0  0  0  0  0
    3.4249   -0.6966    2.7309 H   0  0  0  0  0  0  0  0  0  0  0  0
    3.1807    0.8941    3.4554 H   0  0  0  0  0  0  0  0  0  0  0  0
    4.5755    1.9857    1.7697 H   0  0  0  0  0  0  0  0  0  0  0  0
    5.3816    0.4840    2.3858 H   0  0  0  0  0  0  0  0  0  0  0  0
    2.7088    2.2153    0.6459 H   0  0  0  0  0  0  0  0  0  0  0  0
    1.3577    1.3299   -0.2341 H   0  0  0  0  0  0  0  0  0  0  0  0
    2.3384    0.1208   -2.1608 H   0  0  0  0  0  0  0  0  0  0  0  0
    4.2806   -1.1121   -3.1536 H   0  0  0  0  0  0  0  0  0  0  0  0
    6.2923   -1.4102   -1.8443 H   0  0  0  0  0  0  0  0  0  0  0  0
    8.6692   -1.2172    1.0163 H   0  0  0  0  0  0  0  0  0  0  0  0
    7.6644   -2.2459   -0.0028 H   0  0  0  0  0  0  0  0  0  0  0  0
   10.1186   -0.8640   -2.2808 H   0  0  0  0  0  0  0  0  0  0  0  0
  1  2  1  0
  2  3  1  0
  3  4  2  0
  4  5  1  0
  5  6  2  0
  6  7  1  0
  7  8  2  0
  7  9  1  0
  9 10  1  0
 10 11  2  0
 11 12  1  0
 12 13  1  0
 13 14  2  0
 13 15  1  0
 15 16  1  0
 16 17  2  0
 17 18  1  0
 18 19  2  0
 19 20  1  0
 20 21  2  0
 12 22  1  0
 22 23  1  0
 23 24  1  0
 24 25  1  0
 25 26  1  0
 26 27  2  0
 27 28  1  0
 27 29  1  0
 29 30  2  0
 30 31  1  0
 31 32  2  0
 32 33  1  0
 33 34  1  0
 34 35  1  0
 35 36  2  0
 35 37  1  0
  8  3  1  0
 15  9  2  0
 21 16  1  0
 28 23  1  0
 32 26  1  0
  1 38  1  0
  1 39  1  0
  1 40  1  0
  4 41  1  0
  5 42  1  0
  6 43  1  0
  8 44  1  0
 10 45  1  0
 17 46  1  0
 18 47  1  0
 19 48  1  0
 20 49  1  0
 21 50  1  0
 22 51  1  0
 22 52  1  0
 23 53  1  0
 24 54  1  0
 24 55  1  0
 25 56  1  0
 25 57  1  0
 28 58  1  0
 28 59  1  0
 29 60  1  0
 30 61  1  0
 31 62  1  0
 34 63  1  0
 34 64  1  0
 37 65  1  0
M  END
>  <Ligand ID>  (1) 
LIG0004833

>  <Ligand>  (1) 
CHEMBL3398223

>  <SMILES>  (1) 
COc1cccc(c1)c1cnn(c(=O)c1c1ccccc1)CC1CCc2c(C1)cccc2OCC(=O)O

>  <CID>  (1) 
118727302.0

>  <ChEMBL ID>  (1) 
nan

>  <InChiKey>  (1) 
PPTBVXFOIIBLHP-UHFFFAOYSA-N

>  <InChi>  (1) 
InChI=1S/C30H28N2O5/c1-36-24-11-5-9-23(16-24)26-17-31-32(30(35)29(26)21-7-3-2-4-8-21)18-20-13-14-25-22(15-20)10-6-12-27(25)37-19-28(33)34/h2-12,16-17,20H,13-15,18-19H2,1H3,(H,33,34)

>  <IUPAC Name>  (1) 
2-[[6-[[4-(3-methoxyphenyl)-6-oxo-5-phenylpyridazin-1-yl]methyl]-5,6,7,8-tetrahydronaphthalen-1-yl]oxy]acetic acid

$$$$
