
     RDKit          3D

 86 88  0  0  0  0  0  0  0  0999 V2000
    3.9306    6.8968    0.9517 N   0  0  0  0  0  0  0  0  0  0  0  0
    3.0183    6.0169    1.5846 C   0  0  0  0  0  0  0  0  0  0  0  0
    3.4329    4.8341    1.8938 N   0  0  0  0  0  0  0  0  0  0  0  0
    2.5430    3.8685    2.5518 C   0  0  0  0  0  0  0  0  0  0  0  0
    2.1219    2.9211    1.4267 C   0  0  0  0  0  0  0  0  0  0  0  0
    1.1970    1.8622    1.9106 C   0  0  0  0  0  0  0  0  0  0  0  0
    0.7654    0.9386    0.8033 C   0  0  1  0  0  0  0  0  0  0  0  0
    1.8825    0.2210    0.1709 C   0  0  0  0  0  0  0  0  0  0  0  0
    2.8933    0.7724   -0.3504 O   0  0  0  0  0  0  0  0  0  0  0  0
    1.8721   -1.2091    0.1179 N   0  0  0  0  0  0  0  0  0  0  0  0
    3.0335   -1.8259   -0.5266 C   0  0  2  0  0  0  0  0  0  0  0  0
    4.2890   -1.6251    0.1915 C   0  0  0  0  0  0  0  0  0  0  0  0
    5.3934   -2.1447   -0.0820 O   0  0  0  0  0  0  0  0  0  0  0  0
    4.2799   -0.7469    1.3314 N   0  0  0  0  0  0  0  0  0  0  0  0
    3.0267   -1.5834   -2.0014 C   0  0  0  0  0  0  0  0  0  0  0  0
    4.2255   -2.1572   -2.6415 C   0  0  0  0  0  0  0  0  0  0  0  0
    4.4373   -3.4004   -3.1996 C   0  0  0  0  0  0  0  0  0  0  0  0
    5.7020   -3.5166   -3.6410 N   0  0  0  0  0  0  0  0  0  0  0  0
    6.3516   -2.3689   -3.3909 C   0  0  0  0  0  0  0  0  0  0  0  0
    5.4480   -1.5049   -2.7665 C   0  0  0  0  0  0  0  0  0  0  0  0
    5.9415   -0.2570   -2.4484 C   0  0  0  0  0  0  0  0  0  0  0  0
    7.2306    0.1484   -2.7092 C   0  0  0  0  0  0  0  0  0  0  0  0
    8.1102   -0.7112   -3.3220 C   0  0  0  0  0  0  0  0  0  0  0  0
    7.6585   -1.9581   -3.6547 C   0  0  0  0  0  0  0  0  0  0  0  0
   -0.2220   -0.0200    1.2737 N   0  0  0  0  0  0  0  0  0  0  0  0
   -1.5459    0.1425    0.8041 C   0  0  0  0  0  0  0  0  0  0  0  0
   -1.8349    1.0940    0.0027 O   0  0  0  0  0  0  0  0  0  0  0  0
   -2.6772   -0.7387    1.1843 C   0  0  2  0  0  0  0  0  0  0  0  0
   -3.8501   -0.2122    0.5562 N   0  0  0  0  0  0  0  0  0  0  0  0
   -4.5695   -0.8006   -0.4924 C   0  0  0  0  0  0  0  0  0  0  0  0
   -4.2962   -1.8909   -1.0515 O   0  0  0  0  0  0  0  0  0  0  0  0
   -5.7871   -0.0721   -1.0121 C   0  0  1  0  0  0  0  0  0  0  0  0
   -6.4325   -0.7800   -2.0768 N   0  0  0  0  0  0  0  0  0  0  0  0
   -6.3774   -0.2201   -3.4088 C   0  0  0  0  0  0  0  0  0  0  0  0
   -5.7796    0.8603   -3.6416 O   0  0  0  0  0  0  0  0  0  0  0  0
   -7.0294   -0.9070   -4.5584 C   0  0  0  0  0  0  0  0  0  0  0  0
   -6.6736    0.3700    0.1008 C   0  0  0  0  0  0  0  0  0  0  0  0
   -2.7131   -0.9187    2.6522 C   0  0  0  0  0  0  0  0  0  0  0  0
   -3.7871   -1.7636    3.1760 C   0  0  0  0  0  0  0  0  0  0  0  0
   -3.6749   -3.1413    3.3520 C   0  0  0  0  0  0  0  0  0  0  0  0
   -4.7565   -3.8606    3.8658 C   0  0  0  0  0  0  0  0  0  0  0  0
   -5.9406   -3.1919    4.1972 C   0  0  0  0  0  0  0  0  0  0  0  0
   -6.0635   -1.8251    4.0264 C   0  0  0  0  0  0  0  0  0  0  0  0
   -4.9783   -1.1600    3.5208 C   0  0  0  0  0  0  0  0  0  0  0  0
    1.6850    6.4194    1.8721 N   0  0  0  0  0  0  0  0  0  0  0  0
    3.5506    7.4818    0.1628 H   0  0  0  0  0  0  0  0  0  0  0  0
    4.9300    7.0040    1.2068 H   0  0  0  0  0  0  0  0  0  0  0  0
    3.1505    3.3615    3.3117 H   0  0  0  0  0  0  0  0  0  0  0  0
    1.7048    4.4460    2.9649 H   0  0  0  0  0  0  0  0  0  0  0  0
    3.0561    2.5862    0.9770 H   0  0  0  0  0  0  0  0  0  0  0  0
    1.6180    3.5823    0.6628 H   0  0  0  0  0  0  0  0  0  0  0  0
    0.3175    2.2846    2.4537 H   0  0  0  0  0  0  0  0  0  0  0  0
    1.7852    1.2544    2.6620 H   0  0  0  0  0  0  0  0  0  0  0  0
    0.3118    1.6086    0.0202 H   0  0  0  0  0  0  0  0  0  0  0  0
    1.0860   -1.7814    0.5117 H   0  0  0  0  0  0  0  0  0  0  0  0
    2.8512   -2.9659   -0.4419 H   0  0  0  0  0  0  0  0  0  0  0  0
    3.4864   -0.7810    2.0023 H   0  0  0  0  0  0  0  0  0  0  0  0
    5.0433   -0.0783    1.5042 H   0  0  0  0  0  0  0  0  0  0  0  0
    2.1258   -2.1018   -2.4214 H   0  0  0  0  0  0  0  0  0  0  0  0
    2.9200   -0.5035   -2.2665 H   0  0  0  0  0  0  0  0  0  0  0  0
    3.6930   -4.1766   -3.2741 H   0  0  0  0  0  0  0  0  0  0  0  0
    6.1764   -4.3301   -4.1109 H   0  0  0  0  0  0  0  0  0  0  0  0
    5.2316    0.4181   -1.9612 H   0  0  0  0  0  0  0  0  0  0  0  0
    7.4908    1.1549   -2.4085 H   0  0  0  0  0  0  0  0  0  0  0  0
    9.1207   -0.3696   -3.5157 H   0  0  0  0  0  0  0  0  0  0  0  0
    8.3693   -2.6279   -4.1415 H   0  0  0  0  0  0  0  0  0  0  0  0
    0.0079   -0.7945    1.9239 H   0  0  0  0  0  0  0  0  0  0  0  0
   -2.4523   -1.7233    0.7077 H   0  0  0  0  0  0  0  0  0  0  0  0
   -4.2013    0.7226    0.9333 H   0  0  0  0  0  0  0  0  0  0  0  0
   -5.3536    0.8627   -1.4818 H   0  0  0  0  0  0  0  0  0  0  0  0
   -6.9385   -1.6796   -1.9313 H   0  0  0  0  0  0  0  0  0  0  0  0
   -8.0191   -0.4534   -4.8072 H   0  0  0  0  0  0  0  0  0  0  0  0
   -7.1066   -1.9846   -4.3270 H   0  0  0  0  0  0  0  0  0  0  0  0
   -6.3933   -0.7896   -5.4421 H   0  0  0  0  0  0  0  0  0  0  0  0
   -6.4822    1.4173    0.3565 H   0  0  0  0  0  0  0  0  0  0  0  0
   -6.5442   -0.2051    1.0398 H   0  0  0  0  0  0  0  0  0  0  0  0
   -7.7376    0.3252   -0.2628 H   0  0  0  0  0  0  0  0  0  0  0  0
   -1.7480   -1.4516    2.9165 H   0  0  0  0  0  0  0  0  0  0  0  0
   -2.6089    0.0544    3.2182 H   0  0  0  0  0  0  0  0  0  0  0  0
   -2.7458   -3.6324    3.0868 H   0  0  0  0  0  0  0  0  0  0  0  0
   -4.6642   -4.9358    4.0015 H   0  0  0  0  0  0  0  0  0  0  0  0
   -6.7371   -3.8075    4.5869 H   0  0  0  0  0  0  0  0  0  0  0  0
   -6.9936   -1.3186    4.2917 H   0  0  0  0  0  0  0  0  0  0  0  0
   -5.0866   -0.0784    3.3894 H   0  0  0  0  0  0  0  0  0  0  0  0
    0.8784    6.1521    1.2557 H   0  0  0  0  0  0  0  0  0  0  0  0
    1.4271    6.9994    2.7047 H   0  0  0  0  0  0  0  0  0  0  0  0
  1  2  1  0
  2  3  2  3
  3  4  1  0
  4  5  1  0
  5  6  1  0
  6  7  1  0
  7  8  1  0
  8  9  2  0
  8 10  1  0
 10 11  1  0
 11 12  1  0
 12 13  2  0
 12 14  1  0
 11 15  1  0
 15 16  1  0
 16 17  2  0
 17 18  1  0
 18 19  1  0
 19 20  2  0
 20 21  1  0
 21 22  2  0
 22 23  1  0
 23 24  2  0
  7 25  1  0
 25 26  1  0
 26 27  2  0
 26 28  1  0
 28 29  1  0
 29 30  1  0
 30 31  2  0
 30 32  1  0
 32 33  1  0
 33 34  1  0
 34 35  2  0
 34 36  1  0
 32 37  1  0
 28 38  1  0
 38 39  1  0
 39 40  2  0
 40 41  1  0
 41 42  2  0
 42 43  1  0
 43 44  2  0
  2 45  1  0
 20 16  1  0
 44 39  1  0
 24 19  1  0
  1 46  1  0
  1 47  1  0
  4 48  1  0
  4 49  1  0
  5 50  1  0
  5 51  1  0
  6 52  1  0
  6 53  1  0
  7 54  1  6
 10 55  1  0
 11 56  1  6
 14 57  1  0
 14 58  1  0
 15 59  1  0
 15 60  1  0
 17 61  1  0
 18 62  1  0
 21 63  1  0
 22 64  1  0
 23 65  1  0
 24 66  1  0
 25 67  1  0
 28 68  1  6
 29 69  1  0
 32 70  1  6
 33 71  1  0
 36 72  1  0
 36 73  1  0
 36 74  1  0
 37 75  1  0
 37 76  1  0
 37 77  1  0
 38 78  1  0
 38 79  1  0
 40 80  1  0
 41 81  1  0
 42 82  1  0
 43 83  1  0
 44 84  1  0
 45 85  1  0
 45 86  1  0
M  END
>  <Ligand ID>  (1) 
LIG0001092

>  <Ligand>  (1) 
CHEMBL330233

>  <SMILES>  (1) 
NC(=NCCC[C@@H](C(=O)N[C@H](C(=O)N)Cc1c[nH]c2c1cccc2)NC(=O)[C@H](NC(=O)[C@@H](NC(=O)C)C)Cc1ccccc1)N

>  <CID>  (1) 
11124973.0

>  <ChEMBL ID>  (1) 
nan

>  <InChiKey>  (1) 
RGORAYVOQFUNIL-YCYYUTJKSA-N

>  <InChi>  (1) 
InChI=1S/C31H41N9O5/c1-18(37-19(2)41)28(43)40-26(15-20-9-4-3-5-10-20)30(45)38-24(13-8-14-35-31(33)34)29(44)39-25(27(32)42)16-21-17-36-23-12-7-6-11-22(21)23/h3-7,9-12,17-18,24-26,36H,8,13-16H2,1-2H3,(H2,32,42)(H,37,41)(H,38,45)(H,39,44)(H,40,43)(H4,33,34,35)/t18-,24-,25-,26+/m0/s1

>  <IUPAC Name>  (1) 
(2S)-2-[[(2R)-2-[[(2S)-2-acetamidopropanoyl]amino]-3-phenylpropanoyl]amino]-N-[(2S)-1-amino-3-(1H-indol-3-yl)-1-oxopropan-2-yl]-5-(diaminomethylideneamino)pentanamide

$$$$
