
     RDKit          3D

 21 21  0  0  0  0  0  0  0  0999 V2000
    4.2378   -0.2903    0.1590 C   0  0  0  0  0  0  0  0  0  0  0  0
    2.7910    0.1091    0.1226 C   0  0  0  0  0  0  0  0  0  0  0  0
    2.5119    1.3292    0.2794 O   0  0  0  0  0  0  0  0  0  0  0  0
    1.7794   -0.7989   -0.0729 O   0  0  0  0  0  0  0  0  0  0  0  0
    0.4298   -0.4725   -0.1134 C   0  0  0  0  0  0  0  0  0  0  0  0
   -0.2567   -0.5024    1.1013 C   0  0  0  0  0  0  0  0  0  0  0  0
   -1.6102   -0.1875    1.1389 C   0  0  0  0  0  0  0  0  0  0  0  0
   -2.2573    0.1510   -0.0283 C   0  0  0  0  0  0  0  0  0  0  0  0
   -1.5801    0.1805   -1.2268 C   0  0  0  0  0  0  0  0  0  0  0  0
   -0.2322   -0.1314   -1.2748 C   0  0  0  0  0  0  0  0  0  0  0  0
   -3.7065    0.4846    0.0348 C   0  0  0  0  0  0  0  0  0  0  0  0
    4.5856   -0.2706   -0.8918 H   0  0  0  0  0  0  0  0  0  0  0  0
    4.3683   -1.2776    0.6350 H   0  0  0  0  0  0  0  0  0  0  0  0
    4.8137    0.4489    0.7595 H   0  0  0  0  0  0  0  0  0  0  0  0
    0.2242   -0.7632    2.0272 H   0  0  0  0  0  0  0  0  0  0  0  0
   -2.1663   -0.2017    2.0601 H   0  0  0  0  0  0  0  0  0  0  0  0
   -2.0822    0.4458   -2.1494 H   0  0  0  0  0  0  0  0  0  0  0  0
    0.3263   -0.1165   -2.2040 H   0  0  0  0  0  0  0  0  0  0  0  0
   -4.1321    0.6214   -0.9783 H   0  0  0  0  0  0  0  0  0  0  0  0
   -4.2744   -0.2424    0.6339 H   0  0  0  0  0  0  0  0  0  0  0  0
   -3.7699    1.4846    0.5243 H   0  0  0  0  0  0  0  0  0  0  0  0
  1  2  1  0
  2  3  2  0
  2  4  1  0
  4  5  1  0
  5  6  2  0
  6  7  1  0
  7  8  2  0
  8  9  1  0
  9 10  2  0
  8 11  1  0
 10  5  1  0
  1 12  1  0
  1 13  1  0
  1 14  1  0
  6 15  1  0
  7 16  1  0
  9 17  1  0
 10 18  1  0
 11 19  1  0
 11 20  1  0
 11 21  1  0
M  END
>  <Ligand ID>  (1) 
LIG0000728

>  <Ligand>  (1) 
p-CRESYL ACETATE

>  <SMILES>  (1) 
CC(=O)Oc1ccc(cc1)C

>  <CID>  (1) 
8797.0

>  <ChEMBL ID>  (1) 
nan

>  <InChiKey>  (1) 
CDJJKTLOZJAGIZ-UHFFFAOYSA-N

>  <InChi>  (1) 
InChI=1S/C9H10O2/c1-7-3-5-9(6-4-7)11-8(2)10/h3-6H,1-2H3

>  <IUPAC Name>  (1) 
(4-methylphenyl) acetate

$$$$
