
     RDKit          3D

 31 33  0  0  0  0  0  0  0  0999 V2000
   -3.8310    0.0629    0.5827 C   0  0  0  0  0  0  0  0  0  0  0  0
   -4.0141    0.2401   -0.8929 C   0  0  0  0  0  0  0  0  0  0  0  0
   -2.8880   -0.3455   -1.5452 N   0  0  0  0  0  0  0  0  0  0  0  0
   -2.0429   -0.8359   -0.6775 C   0  0  0  0  0  0  0  0  0  0  0  0
   -2.5484   -0.6112    0.6323 N   0  0  0  0  0  0  0  0  0  0  0  0
   -0.7697   -1.5219   -0.9504 C   0  0  0  0  0  0  0  0  0  0  0  0
    0.3604   -0.9720   -0.3835 O   0  0  0  0  0  0  0  0  0  0  0  0
    0.9431    0.2373   -0.5122 C   0  0  0  0  0  0  0  0  0  0  0  0
    0.3978    1.2065   -1.3508 C   0  0  0  0  0  0  0  0  0  0  0  0
    0.9686    2.4548   -1.5062 C   0  0  0  0  0  0  0  0  0  0  0  0
    2.1181    2.7354   -0.7995 C   0  0  0  0  0  0  0  0  0  0  0  0
    2.6501    1.7705    0.0273 C   0  0  0  0  0  0  0  0  0  0  0  0
    2.0932    0.5167    0.1954 C   0  0  0  0  0  0  0  0  0  0  0  0
    2.7395   -0.4253    1.0949 C   0  0  0  0  0  0  0  0  0  0  0  0
    2.3889   -1.6927    1.4190 C   0  0  0  0  0  0  0  0  0  0  0  0
    3.3217   -2.2035    2.3297 C   0  0  0  0  0  0  0  0  0  0  0  0
    4.1934   -1.1953    2.5023 N   0  0  0  0  0  0  0  0  0  0  0  0
    3.8511   -0.1751    1.7879 O   0  0  0  0  0  0  0  0  0  0  0  0
   -4.5904   -0.6447    1.0178 H   0  0  0  0  0  0  0  0  0  0  0  0
   -3.8328    1.0371    1.1112 H   0  0  0  0  0  0  0  0  0  0  0  0
   -4.1495    1.3177   -1.1872 H   0  0  0  0  0  0  0  0  0  0  0  0
   -4.9247   -0.3493   -1.1983 H   0  0  0  0  0  0  0  0  0  0  0  0
   -2.0972   -0.8757    1.5355 H   0  0  0  0  0  0  0  0  0  0  0  0
   -0.5753   -1.5981   -2.0543 H   0  0  0  0  0  0  0  0  0  0  0  0
   -0.8180   -2.6043   -0.6295 H   0  0  0  0  0  0  0  0  0  0  0  0
   -0.4925    1.0101   -1.9103 H   0  0  0  0  0  0  0  0  0  0  0  0
    0.5112    3.1862   -2.1724 H   0  0  0  0  0  0  0  0  0  0  0  0
    2.5923    3.6912   -0.8915 H   0  0  0  0  0  0  0  0  0  0  0  0
    3.5666    2.0500    0.5652 H   0  0  0  0  0  0  0  0  0  0  0  0
    1.5632   -2.2738    1.0847 H   0  0  0  0  0  0  0  0  0  0  0  0
    3.3151   -3.1919    2.7762 H   0  0  0  0  0  0  0  0  0  0  0  0
  1  2  1  0
  2  3  1  0
  3  4  2  0
  4  5  1  0
  4  6  1  0
  6  7  1  0
  7  8  1  0
  8  9  2  0
  9 10  1  0
 10 11  2  0
 11 12  1  0
 12 13  2  0
 13 14  1  0
 14 15  2  0
 15 16  1  0
 16 17  2  0
 17 18  1  0
  5  1  1  0
 13  8  1  0
 18 14  1  0
  1 19  1  0
  1 20  1  0
  2 21  1  0
  2 22  1  0
  5 23  1  0
  6 24  1  0
  6 25  1  0
  9 26  1  0
 10 27  1  0
 11 28  1  0
 12 29  1  0
 15 30  1  0
 16 31  1  0
M  END
>  <Ligand ID>  (1) 
LIG0003195

>  <Ligand>  (1) 
CHEMBL327005

>  <SMILES>  (1) 
C1CN=C(N1)COc1ccccc1c1ccno1

>  <CID>  (1) 
44343236.0

>  <ChEMBL ID>  (1) 
nan

>  <InChiKey>  (1) 
QUOSOWBVNOKBLO-UHFFFAOYSA-N

>  <InChi>  (1) 
InChI=1S/C13H13N3O2/c1-2-4-11(17-9-13-14-7-8-15-13)10(3-1)12-5-6-16-18-12/h1-6H,7-9H2,(H,14,15)

>  <IUPAC Name>  (1) 
5-[2-(4,5-dihydro-1H-imidazol-2-ylmethoxy)phenyl]-1,2-oxazole

$$$$
