
     RDKit          3D

 55 58  0  0  0  0  0  0  0  0999 V2000
   -3.9421   -0.3288    2.6661 C   0  0  0  0  0  0  0  0  0  0  0  0
   -3.1822   -0.3750    1.4861 O   0  0  0  0  0  0  0  0  0  0  0  0
   -3.6473   -0.2590    0.2057 C   0  0  0  0  0  0  0  0  0  0  0  0
   -5.0184   -0.0787    0.0520 C   0  0  0  0  0  0  0  0  0  0  0  0
   -5.6047    0.0467   -1.1839 C   0  0  0  0  0  0  0  0  0  0  0  0
   -4.7728   -0.0137   -2.2790 C   0  0  0  0  0  0  0  0  0  0  0  0
   -3.4228   -0.1906   -2.1311 C   0  0  0  0  0  0  0  0  0  0  0  0
   -2.7865   -0.3221   -0.8895 C   0  0  0  0  0  0  0  0  0  0  0  0
   -1.3290   -0.4836   -0.7636 C   0  0  2  0  0  0  0  0  0  0  0  0
   -0.7969   -1.6978   -0.1407 C   0  0  0  0  0  0  0  0  0  0  0  0
   -0.0513   -1.4896    1.1451 C   0  0  0  0  0  0  0  0  0  0  0  0
    1.0494   -0.5915    0.9229 N   0  0  0  0  0  0  0  0  0  0  0  0
    0.8891    0.4072   -0.0480 C   0  0  0  0  0  0  0  0  0  0  0  0
   -0.5579    0.7363   -0.3727 C   0  0  2  0  0  0  0  0  0  0  0  0
   -1.1908    1.6182    0.6623 C   0  0  0  0  0  0  0  0  0  0  0  0
    2.2702   -1.3026    0.9956 C   0  0  0  0  0  0  0  0  0  0  0  0
    3.5036   -0.5346    0.7943 C   0  0  0  0  0  0  0  0  0  0  0  0
    4.1340    0.1240    1.7956 N   0  0  0  0  0  0  0  0  0  0  0  0
    5.2326    0.7140    1.2962 C   0  0  0  0  0  0  0  0  0  0  0  0
    5.3120    0.4307   -0.0506 C   0  0  0  0  0  0  0  0  0  0  0  0
    4.2361   -0.3342   -0.3133 N   0  0  0  0  0  0  0  0  0  0  0  0
    3.9615   -0.8553   -1.6390 C   0  0  0  0  0  0  0  0  0  0  0  0
    6.3713    0.9396   -0.7742 C   0  0  0  0  0  0  0  0  0  0  0  0
    7.3249    1.7195   -0.1311 C   0  0  0  0  0  0  0  0  0  0  0  0
    7.2196    1.9905    1.2339 C   0  0  0  0  0  0  0  0  0  0  0  0
    6.1674    1.4748    1.9115 N   0  0  0  0  0  0  0  0  0  0  0  0
   -7.0635    0.2373   -1.3163 C   0  0  0  0  0  0  0  0  0  0  0  0
   -7.7571   -0.9210   -1.5422 F   0  0  0  0  0  0  0  0  0  0  0  0
   -7.5001    0.8208   -0.1218 F   0  0  0  0  0  0  0  0  0  0  0  0
   -7.3314    1.0902   -2.3880 F   0  0  0  0  0  0  0  0  0  0  0  0
   -3.2958   -0.8166    3.4529 H   0  0  0  0  0  0  0  0  0  0  0  0
   -4.0927    0.7531    2.9449 H   0  0  0  0  0  0  0  0  0  0  0  0
   -4.8867   -0.8806    2.5761 H   0  0  0  0  0  0  0  0  0  0  0  0
   -5.6919   -0.0285    0.9089 H   0  0  0  0  0  0  0  0  0  0  0  0
   -5.2313    0.0842   -3.2503 H   0  0  0  0  0  0  0  0  0  0  0  0
   -2.8382   -0.2265   -3.0560 H   0  0  0  0  0  0  0  0  0  0  0  0
   -1.0270   -0.6071   -1.8906 H   0  0  0  0  0  0  0  0  0  0  0  0
   -1.5196   -2.5496   -0.0776 H   0  0  0  0  0  0  0  0  0  0  0  0
   -0.0102   -2.1516   -0.8220 H   0  0  0  0  0  0  0  0  0  0  0  0
    0.3534   -2.4586    1.5359 H   0  0  0  0  0  0  0  0  0  0  0  0
   -0.6303   -1.0511    1.9723 H   0  0  0  0  0  0  0  0  0  0  0  0
    1.3567    0.1312   -1.0226 H   0  0  0  0  0  0  0  0  0  0  0  0
    1.3645    1.3451    0.2671 H   0  0  0  0  0  0  0  0  0  0  0  0
   -0.4534    1.4202   -1.2843 H   0  0  0  0  0  0  0  0  0  0  0  0
   -1.0573    1.2773    1.7082 H   0  0  0  0  0  0  0  0  0  0  0  0
   -2.2341    1.8948    0.3970 H   0  0  0  0  0  0  0  0  0  0  0  0
   -0.6762    2.6400    0.6765 H   0  0  0  0  0  0  0  0  0  0  0  0
    2.3560   -1.8232    1.9957 H   0  0  0  0  0  0  0  0  0  0  0  0
    2.3183   -2.1699    0.2703 H   0  0  0  0  0  0  0  0  0  0  0  0
    3.2431   -1.6741   -1.5923 H   0  0  0  0  0  0  0  0  0  0  0  0
    4.8870   -1.1043   -2.1921 H   0  0  0  0  0  0  0  0  0  0  0  0
    3.4834   -0.0352   -2.2477 H   0  0  0  0  0  0  0  0  0  0  0  0
    6.4416    0.7235   -1.8267 H   0  0  0  0  0  0  0  0  0  0  0  0
    8.1695    2.1373   -0.6602 H   0  0  0  0  0  0  0  0  0  0  0  0
    7.9540    2.5981    1.7570 H   0  0  0  0  0  0  0  0  0  0  0  0
  1  2  1  0
  2  3  1  0
  3  4  2  0
  4  5  1  0
  5  6  2  0
  6  7  1  0
  7  8  2  0
  8  9  1  0
  9 10  1  0
 10 11  1  0
 11 12  1  0
 12 13  1  0
 13 14  1  0
 14 15  1  0
 12 16  1  0
 16 17  1  0
 17 18  2  0
 18 19  1  0
 19 20  2  0
 20 21  1  0
 21 22  1  0
 20 23  1  0
 23 24  2  0
 24 25  1  0
 25 26  2  0
  5 27  1  0
 27 28  1  0
 27 29  1  0
 27 30  1  0
  8  3  1  0
 14  9  1  0
 21 17  1  0
 26 19  1  0
  1 31  1  0
  1 32  1  0
  1 33  1  0
  4 34  1  0
  6 35  1  0
  7 36  1  0
  9 37  1  6
 10 38  1  0
 10 39  1  0
 11 40  1  0
 11 41  1  0
 13 42  1  0
 13 43  1  0
 14 44  1  6
 15 45  1  0
 15 46  1  0
 15 47  1  0
 16 48  1  0
 16 49  1  0
 22 50  1  0
 22 51  1  0
 22 52  1  0
 23 53  1  0
 24 54  1  0
 25 55  1  0
M  END
>  <Ligand ID>  (1) 
LIG0005536

>  <Ligand>  (1) 
CHEMBL1774231

>  <SMILES>  (1) 
COc1cc(ccc1[C@@H]1CCN(C[C@@H]1C)Cc1nc2c(n1C)cccn2)C(F)(F)F

>  <CID>  (1) 
51357936.0

>  <ChEMBL ID>  (1) 
nan

>  <InChiKey>  (1) 
XTGROMAGIGWBCC-GOEBONIOSA-N

>  <InChi>  (1) 
InChI=1S/C22H25F3N4O/c1-14-12-29(13-20-27-21-18(28(20)2)5-4-9-26-21)10-8-16(14)17-7-6-15(22(23,24)25)11-19(17)30-3/h4-7,9,11,14,16H,8,10,12-13H2,1-3H3/t14-,16+/m0/s1

>  <IUPAC Name>  (1) 
2-[[(3R,4R)-4-[2-methoxy-4-(trifluoromethyl)phenyl]-3-methylpiperidin-1-yl]methyl]-1-methylimidazo[4,5-b]pyridine

$$$$
