
     RDKit          3D

 74 76  0  0  0  0  0  0  0  0999 V2000
    9.7871    3.6762   -2.5145 O   0  0  0  0  0  0  0  0  0  0  0  0
    9.3370    2.5141   -1.8718 C   0  0  0  0  0  0  0  0  0  0  0  0
    8.5524    1.7622   -2.4786 O   0  0  0  0  0  0  0  0  0  0  0  0
    9.8495    2.2865   -0.5015 C   0  0  0  0  0  0  0  0  0  0  0  0
    9.3197    1.0403    0.1457 C   0  0  1  0  0  0  0  0  0  0  0  0
    9.8778    0.8838    1.5258 C   0  0  0  0  0  0  0  0  0  0  0  0
    9.0959    0.8693    2.5058 O   0  0  0  0  0  0  0  0  0  0  0  0
   11.2653    0.7564    1.6953 O   0  0  0  0  0  0  0  0  0  0  0  0
    7.8881    1.1404    0.2570 N   0  0  0  0  0  0  0  0  0  0  0  0
    7.1118    0.0341   -0.1716 C   0  0  0  0  0  0  0  0  0  0  0  0
    7.6849   -0.9855   -0.6192 O   0  0  0  0  0  0  0  0  0  0  0  0
    5.6580    0.0138   -0.1213 C   0  0  0  0  0  0  0  0  0  0  0  0
    5.0172   -1.1621   -0.4303 C   0  0  0  0  0  0  0  0  0  0  0  0
    3.6187   -1.2443   -0.4195 C   0  0  0  0  0  0  0  0  0  0  0  0
    2.8495   -0.1223   -0.0918 C   0  0  0  0  0  0  0  0  0  0  0  0
    3.4969    1.0453    0.2151 C   0  0  0  0  0  0  0  0  0  0  0  0
    4.8946    1.1210    0.2027 C   0  0  0  0  0  0  0  0  0  0  0  0
    1.4281   -0.2770   -0.0990 N   0  0  0  0  0  0  0  0  0  0  0  0
    0.9466   -1.6390   -0.0433 C   0  0  0  0  0  0  0  0  0  0  0  0
   -0.4560   -1.8121    0.4395 C   0  0  0  0  0  0  0  0  0  0  0  0
   -1.3131   -0.6047    0.1235 C   0  0  0  0  0  0  0  0  0  0  0  0
   -0.6242    0.6394    0.7080 C   0  0  0  0  0  0  0  0  0  0  0  0
    0.5654    0.8846   -0.1914 C   0  0  0  0  0  0  0  0  0  0  0  0
   -2.7226   -0.7632    0.5932 C   0  0  0  0  0  0  0  0  0  0  0  0
   -3.4408   -1.8284    0.0820 N   0  0  0  0  0  0  0  0  0  0  0  0
   -3.8435   -2.0208   -1.2130 C   0  0  0  0  0  0  0  0  0  0  0  0
   -4.8332   -1.1934   -1.9100 C   0  0  1  0  0  0  0  0  0  0  0  0
   -6.2360   -1.4258   -1.4325 C   0  0  0  0  0  0  0  0  0  0  0  0
   -7.0200   -2.4543   -1.9084 C   0  0  0  0  0  0  0  0  0  0  0  0
   -8.2932   -2.5822   -1.4206 C   0  0  0  0  0  0  0  0  0  0  0  0
   -8.7665   -1.6798   -0.4633 C   0  0  0  0  0  0  0  0  0  0  0  0
   -7.9867   -0.6479    0.0166 C   0  0  0  0  0  0  0  0  0  0  0  0
   -6.7090   -0.5429   -0.4914 C   0  0  0  0  0  0  0  0  0  0  0  0
   -8.4534    0.2912    0.9877 N   0  0  0  0  0  0  0  0  0  0  0  0
   -7.4337    1.6101    1.4575 S   0  0  0  0  0  0  0  0  0  0  0  0
   -6.1575    1.0973    2.0333 O   0  0  0  0  0  0  0  0  0  0  0  0
   -8.1539    2.4703    2.4694 O   0  0  0  0  0  0  0  0  0  0  0  0
   -7.0772    2.6386    0.0697 C   0  0  0  0  0  0  0  0  0  0  0  0
  -10.0530   -1.8313    0.0119 O   0  0  0  0  0  0  0  0  0  0  0  0
   -4.5641    0.1483   -2.0683 O   0  0  0  0  0  0  0  0  0  0  0  0
    9.4435    3.9919   -3.3905 H   0  0  0  0  0  0  0  0  0  0  0  0
    9.6091    3.1637    0.1440 H   0  0  0  0  0  0  0  0  0  0  0  0
   10.9623    2.1842   -0.6089 H   0  0  0  0  0  0  0  0  0  0  0  0
    9.5720    0.1342   -0.4346 H   0  0  0  0  0  0  0  0  0  0  0  0
   11.5754    0.1080    2.4221 H   0  0  0  0  0  0  0  0  0  0  0  0
    7.4039    1.9897    0.6395 H   0  0  0  0  0  0  0  0  0  0  0  0
    5.5687   -2.0783   -0.6949 H   0  0  0  0  0  0  0  0  0  0  0  0
    3.1670   -2.1957   -0.6735 H   0  0  0  0  0  0  0  0  0  0  0  0
    2.9841    1.9354    0.4758 H   0  0  0  0  0  0  0  0  0  0  0  0
    5.3761    2.0570    0.4486 H   0  0  0  0  0  0  0  0  0  0  0  0
    1.6172   -2.2164    0.6218 H   0  0  0  0  0  0  0  0  0  0  0  0
    1.0789   -2.0715   -1.0719 H   0  0  0  0  0  0  0  0  0  0  0  0
   -0.4538   -1.9293    1.5259 H   0  0  0  0  0  0  0  0  0  0  0  0
   -0.8940   -2.6672   -0.1148 H   0  0  0  0  0  0  0  0  0  0  0  0
   -1.2585   -0.4689   -0.9794 H   0  0  0  0  0  0  0  0  0  0  0  0
   -0.3198    0.4447    1.7587 H   0  0  0  0  0  0  0  0  0  0  0  0
   -1.3062    1.5030    0.5944 H   0  0  0  0  0  0  0  0  0  0  0  0
    1.0726    1.8237    0.0303 H   0  0  0  0  0  0  0  0  0  0  0  0
    0.1374    0.8935   -1.2339 H   0  0  0  0  0  0  0  0  0  0  0  0
   -3.2376    0.2329    0.6159 H   0  0  0  0  0  0  0  0  0  0  0  0
   -2.6307   -0.9770    1.7061 H   0  0  0  0  0  0  0  0  0  0  0  0
   -3.9479   -2.4300    0.7899 H   0  0  0  0  0  0  0  0  0  0  0  0
   -4.2743   -3.0760   -1.2577 H   0  0  0  0  0  0  0  0  0  0  0  0
   -2.9189   -2.1631   -1.8539 H   0  0  0  0  0  0  0  0  0  0  0  0
   -4.8610   -1.5697   -2.9813 H   0  0  0  0  0  0  0  0  0  0  0  0
   -6.5837   -3.1201   -2.6556 H   0  0  0  0  0  0  0  0  0  0  0  0
   -8.9091   -3.3930   -1.7963 H   0  0  0  0  0  0  0  0  0  0  0  0
   -6.0903    0.2551   -0.1291 H   0  0  0  0  0  0  0  0  0  0  0  0
   -9.4066    0.1613    1.3976 H   0  0  0  0  0  0  0  0  0  0  0  0
   -7.5826    2.2130   -0.8283 H   0  0  0  0  0  0  0  0  0  0  0  0
   -7.4532    3.6743    0.1711 H   0  0  0  0  0  0  0  0  0  0  0  0
   -5.9774    2.6629   -0.1549 H   0  0  0  0  0  0  0  0  0  0  0  0
  -10.2365   -1.7179    1.0073 H   0  0  0  0  0  0  0  0  0  0  0  0
   -5.3331    0.5394   -2.5525 H   0  0  0  0  0  0  0  0  0  0  0  0
  1  2  1  0
  2  3  2  0
  2  4  1  0
  4  5  1  0
  5  6  1  0
  6  7  2  0
  6  8  1  0
  5  9  1  0
  9 10  1  0
 10 11  2  0
 10 12  1  0
 12 13  2  0
 13 14  1  0
 14 15  2  0
 15 16  1  0
 16 17  2  0
 15 18  1  0
 18 19  1  0
 19 20  1  0
 20 21  1  0
 21 22  1  0
 22 23  1  0
 21 24  1  0
 24 25  1  0
 25 26  1  0
 26 27  1  0
 27 28  1  0
 28 29  2  0
 29 30  1  0
 30 31  2  0
 31 32  1  0
 32 33  2  0
 32 34  1  0
 34 35  1  0
 35 36  2  0
 35 37  2  0
 35 38  1  0
 31 39  1  0
 27 40  1  0
 17 12  1  0
 23 18  1  0
 33 28  1  0
  1 41  1  0
  4 42  1  0
  4 43  1  0
  5 44  1  6
  8 45  1  0
  9 46  1  0
 13 47  1  0
 14 48  1  0
 16 49  1  0
 17 50  1  0
 19 51  1  0
 19 52  1  0
 20 53  1  0
 20 54  1  0
 21 55  1  0
 22 56  1  0
 22 57  1  0
 23 58  1  0
 23 59  1  0
 24 60  1  0
 24 61  1  0
 25 62  1  0
 26 63  1  0
 26 64  1  0
 27 65  1  6
 29 66  1  0
 30 67  1  0
 33 68  1  0
 34 69  1  0
 38 70  1  0
 38 71  1  0
 38 72  1  0
 39 73  1  0
 40 74  1  0
M  END
>  <Ligand ID>  (1) 
LIG0004942

>  <Ligand>  (1) 
CHEMBL101521

>  <SMILES>  (1) 
OC(=O)C[C@@H](C(=O)O)NC(=O)c1ccc(cc1)N1CCC(CC1)CNC[C@@H](c1ccc(c(c1)NS(=O)(=O)C)O)O

>  <CID>  (1) 
44331426.0

>  <ChEMBL ID>  (1) 
nan

>  <InChiKey>  (1) 
LXAPTQSVPDBLJM-GMAHTHKFSA-N

>  <InChi>  (1) 
InChI=1S/C26H34N4O9S/c1-40(38,39)29-20-12-18(4-7-22(20)31)23(32)15-27-14-16-8-10-30(11-9-16)19-5-2-17(3-6-19)25(35)28-21(26(36)37)13-24(33)34/h2-7,12,16,21,23,27,29,31-32H,8-11,13-15H2,1H3,(H,28,35)(H,33,34)(H,36,37)/t21-,23-/m0/s1

>  <IUPAC Name>  (1) 
(2S)-2-[[4-[4-[[[(2R)-2-hydroxy-2-[4-hydroxy-3-(methanesulfonamido)phenyl]ethyl]amino]methyl]piperidin-1-yl]benzoyl]amino]butanedioic acid

$$$$
