
     RDKit          3D

 57 60  0  0  0  0  0  0  0  0999 V2000
    6.9225   -0.4080    0.3954 C   0  0  0  0  0  0  0  0  0  0  0  0
    6.0427   -1.3959    0.7853 O   0  0  0  0  0  0  0  0  0  0  0  0
    4.9578   -1.5319   -0.0483 C   0  0  0  0  0  0  0  0  0  0  0  0
    4.1729   -0.2571   -0.0797 C   0  0  0  0  0  0  0  0  0  0  0  0
    3.7292    0.0193    1.3460 C   0  0  0  0  0  0  0  0  0  0  0  0
    2.4384    0.7934    1.3558 C   0  0  0  0  0  0  0  0  0  0  0  0
    1.3251   -0.0407    0.9013 N   0  0  0  0  0  0  0  0  0  0  0  0
    1.7109   -0.8223   -0.2566 C   0  0  0  0  0  0  0  0  0  0  0  0
    2.9398   -0.3503   -0.9512 C   0  0  0  0  0  0  0  0  0  0  0  0
    0.2598    0.8777    0.6170 C   0  0  0  0  0  0  0  0  0  0  0  0
   -0.9715    0.1444    0.3026 C   0  0  0  0  0  0  0  0  0  0  0  0
   -1.2930   -1.1867    0.3387 C   0  0  0  0  0  0  0  0  0  0  0  0
   -2.5687   -1.3724   -0.0230 N   0  0  0  0  0  0  0  0  0  0  0  0
   -3.0545   -0.1596   -0.2888 N   0  0  0  0  0  0  0  0  0  0  0  0
   -2.1344    0.7882   -0.1075 C   0  0  0  0  0  0  0  0  0  0  0  0
   -2.2976    2.2543   -0.3094 C   0  0  0  0  0  0  0  0  0  0  0  0
   -2.0865    3.1625    0.6224 C   0  0  0  0  0  0  0  0  0  0  0  0
   -2.2781    4.5048    0.3063 C   0  0  0  0  0  0  0  0  0  0  0  0
   -2.7947    4.4739   -1.4342 S   0  0  0  0  0  0  0  0  0  0  0  0
   -2.7068    2.7057   -1.5730 C   0  0  0  0  0  0  0  0  0  0  0  0
   -3.0019    1.8807   -2.7813 C   0  0  0  0  0  0  0  0  0  0  0  0
   -2.1167    5.7129    1.1327 C   0  0  0  0  0  0  0  0  0  0  0  0
   -3.3551   -2.5379   -0.1243 C   0  0  0  0  0  0  0  0  0  0  0  0
   -4.3107   -2.7245    0.8842 C   0  0  0  0  0  0  0  0  0  0  0  0
   -5.1414   -3.8186    0.9077 C   0  0  0  0  0  0  0  0  0  0  0  0
   -5.0446   -4.7577   -0.0728 C   0  0  0  0  0  0  0  0  0  0  0  0
   -4.1070   -4.5827   -1.0695 C   0  0  0  0  0  0  0  0  0  0  0  0
   -3.2522   -3.4823   -1.1160 C   0  0  0  0  0  0  0  0  0  0  0  0
   -2.3407   -3.3233   -2.0906 F   0  0  0  0  0  0  0  0  0  0  0  0
    7.2981   -0.6317   -0.6423 H   0  0  0  0  0  0  0  0  0  0  0  0
    7.7981   -0.4497    1.0933 H   0  0  0  0  0  0  0  0  0  0  0  0
    6.5122    0.5958    0.4738 H   0  0  0  0  0  0  0  0  0  0  0  0
    5.2402   -1.8793   -1.0704 H   0  0  0  0  0  0  0  0  0  0  0  0
    4.3235   -2.3448    0.4078 H   0  0  0  0  0  0  0  0  0  0  0  0
    4.7937    0.5517   -0.4993 H   0  0  0  0  0  0  0  0  0  0  0  0
    3.6448   -0.8983    1.9622 H   0  0  0  0  0  0  0  0  0  0  0  0
    4.5094    0.6593    1.7879 H   0  0  0  0  0  0  0  0  0  0  0  0
    2.2239    1.0804    2.4035 H   0  0  0  0  0  0  0  0  0  0  0  0
    2.5770    1.6920    0.7359 H   0  0  0  0  0  0  0  0  0  0  0  0
    1.7731   -1.8861    0.0927 H   0  0  0  0  0  0  0  0  0  0  0  0
    0.8905   -0.8063   -1.0049 H   0  0  0  0  0  0  0  0  0  0  0  0
    2.7015    0.5936   -1.4749 H   0  0  0  0  0  0  0  0  0  0  0  0
    3.1766   -1.0951   -1.7586 H   0  0  0  0  0  0  0  0  0  0  0  0
    0.5309    1.6014   -0.1942 H   0  0  0  0  0  0  0  0  0  0  0  0
    0.0602    1.4674    1.5645 H   0  0  0  0  0  0  0  0  0  0  0  0
   -0.6140   -1.9653    0.6159 H   0  0  0  0  0  0  0  0  0  0  0  0
   -1.7689    2.9227    1.6623 H   0  0  0  0  0  0  0  0  0  0  0  0
   -2.6905    2.3922   -3.7121 H   0  0  0  0  0  0  0  0  0  0  0  0
   -4.0604    1.6075   -2.8860 H   0  0  0  0  0  0  0  0  0  0  0  0
   -2.3619    0.9644   -2.7216 H   0  0  0  0  0  0  0  0  0  0  0  0
   -1.6767    6.5469    0.5162 H   0  0  0  0  0  0  0  0  0  0  0  0
   -3.0432    6.1048    1.5806 H   0  0  0  0  0  0  0  0  0  0  0  0
   -1.4440    5.4425    1.9526 H   0  0  0  0  0  0  0  0  0  0  0  0
   -4.4033   -1.9874    1.6689 H   0  0  0  0  0  0  0  0  0  0  0  0
   -5.8595   -3.8781    1.7416 H   0  0  0  0  0  0  0  0  0  0  0  0
   -5.7082   -5.6154   -0.0352 H   0  0  0  0  0  0  0  0  0  0  0  0
   -4.0660   -5.3510   -1.8291 H   0  0  0  0  0  0  0  0  0  0  0  0
  1  2  1  0
  2  3  1  0
  3  4  1  0
  4  5  1  0
  5  6  1  0
  6  7  1  0
  7  8  1  0
  8  9  1  0
  7 10  1  0
 10 11  1  0
 11 12  2  0
 12 13  1  0
 13 14  1  0
 14 15  2  0
 15 16  1  0
 16 17  1  0
 17 18  2  0
 18 19  1  0
 19 20  1  0
 20 21  1  0
 18 22  1  0
 13 23  1  0
 23 24  2  0
 24 25  1  0
 25 26  2  0
 26 27  1  0
 27 28  2  0
 28 29  1  0
  9  4  1  0
 15 11  1  0
 20 16  2  0
 28 23  1  0
  1 30  1  0
  1 31  1  0
  1 32  1  0
  3 33  1  0
  3 34  1  0
  4 35  1  0
  5 36  1  0
  5 37  1  0
  6 38  1  0
  6 39  1  0
  8 40  1  0
  8 41  1  0
  9 42  1  0
  9 43  1  0
 10 44  1  0
 10 45  1  0
 12 46  1  0
 17 47  1  0
 21 48  1  0
 21 49  1  0
 21 50  1  0
 22 51  1  0
 22 52  1  0
 22 53  1  0
 24 54  1  0
 25 55  1  0
 26 56  1  0
 27 57  1  0
M  END
>  <Ligand ID>  (1) 
LIG0003733

>  <Ligand>  (1) 
MLS000731911

>  <SMILES>  (1) 
COCC1CCN(CC1)Cc1cn(nc1c1cc(sc1C)C)c1ccccc1F

>  <CID>  (1) 
16190127.0

>  <ChEMBL ID>  (1) 
nan

>  <InChiKey>  (1) 
AVXGHKWEEAVFKR-UHFFFAOYSA-N

>  <InChi>  (1) 
InChI=1S/C23H28FN3OS/c1-16-12-20(17(2)29-16)23-19(13-26-10-8-18(9-11-26)15-28-3)14-27(25-23)22-7-5-4-6-21(22)24/h4-7,12,14,18H,8-11,13,15H2,1-3H3

>  <IUPAC Name>  (1) 
1-[[3-(2,5-dimethylthiophen-3-yl)-1-(2-fluorophenyl)pyrazol-4-yl]methyl]-4-(methoxymethyl)piperidine

$$$$
