
     RDKit          3D

 25 25  0  0  0  0  0  0  0  0999 V2000
   -4.7739    0.5635    0.3398 C   0  0  0  0  0  0  0  0  0  0  0  0
   -3.8758   -0.1119   -0.5131 O   0  0  0  0  0  0  0  0  0  0  0  0
   -2.5369   -0.2805   -0.2477 C   0  0  0  0  0  0  0  0  0  0  0  0
   -1.7520   -0.9695   -1.1741 C   0  0  0  0  0  0  0  0  0  0  0  0
   -0.3993   -1.1558   -0.9352 C   0  0  0  0  0  0  0  0  0  0  0  0
    0.2133   -0.6758    0.2077 C   0  0  0  0  0  0  0  0  0  0  0  0
   -0.5573    0.0065    1.1281 C   0  0  0  0  0  0  0  0  0  0  0  0
   -1.9035    0.1893    0.8854 C   0  0  0  0  0  0  0  0  0  0  0  0
    1.6681   -0.8828    0.4526 C   0  0  0  0  0  0  0  0  0  0  0  0
    2.4462    0.1853   -0.0834 O   0  0  0  0  0  0  0  0  0  0  0  0
    3.8339    0.2021    0.0289 C   0  0  0  0  0  0  0  0  0  0  0  0
    4.4327   -0.7369    0.6128 O   0  0  0  0  0  0  0  0  0  0  0  0
    4.6026    1.3452   -0.5504 C   0  0  0  0  0  0  0  0  0  0  0  0
   -4.4886    0.4915    1.4087 H   0  0  0  0  0  0  0  0  0  0  0  0
   -5.7507    0.0483    0.2184 H   0  0  0  0  0  0  0  0  0  0  0  0
   -4.9030    1.6456    0.0598 H   0  0  0  0  0  0  0  0  0  0  0  0
   -2.2441   -1.3450   -2.0737 H   0  0  0  0  0  0  0  0  0  0  0  0
    0.2068   -1.6798   -1.6359 H   0  0  0  0  0  0  0  0  0  0  0  0
   -0.0925    0.3836    2.0189 H   0  0  0  0  0  0  0  0  0  0  0  0
   -2.4731    0.7240    1.6214 H   0  0  0  0  0  0  0  0  0  0  0  0
    2.0378   -1.7911   -0.1094 H   0  0  0  0  0  0  0  0  0  0  0  0
    1.9038   -1.1057    1.5057 H   0  0  0  0  0  0  0  0  0  0  0  0
    3.9480    2.2559   -0.6292 H   0  0  0  0  0  0  0  0  0  0  0  0
    4.9739    1.1341   -1.5736 H   0  0  0  0  0  0  0  0  0  0  0  0
    5.4834    1.5600    0.0910 H   0  0  0  0  0  0  0  0  0  0  0  0
  1  2  1  0
  2  3  1  0
  3  4  2  0
  4  5  1  0
  5  6  2  0
  6  7  1  0
  7  8  2  0
  6  9  1  0
  9 10  1  0
 10 11  1  0
 11 12  2  0
 11 13  1  0
  8  3  1  0
  1 14  1  0
  1 15  1  0
  1 16  1  0
  4 17  1  0
  5 18  1  0
  7 19  1  0
  8 20  1  0
  9 21  1  0
  9 22  1  0
 13 23  1  0
 13 24  1  0
 13 25  1  0
M  END
>  <Ligand ID>  (1) 
LIG0000759

>  <Ligand>  (1) 
Anisyl acetate

>  <SMILES>  (1) 
COc1ccc(cc1)COC(=O)C

>  <CID>  (1) 
7695.0

>  <ChEMBL ID>  (1) 
nan

>  <InChiKey>  (1) 
HFNGYHHRRMSKEU-UHFFFAOYSA-N

>  <InChi>  (1) 
InChI=1S/C10H12O3/c1-8(11)13-7-9-3-5-10(12-2)6-4-9/h3-6H,7H2,1-2H3

>  <IUPAC Name>  (1) 
(4-methoxyphenyl)methyl acetate

$$$$
