
     RDKit          3D

209217  0  0  0  0  0  0  0  0999 V2000
   -9.1330    9.1491    2.8695 O   0  0  0  0  0  0  0  0  0  0  0  0
   -8.1938    8.5303    2.0359 C   0  0  0  0  0  0  0  0  0  0  0  0
   -8.5844    7.8231    0.9124 C   0  0  0  0  0  0  0  0  0  0  0  0
   -7.6655    7.1987    0.0625 C   0  0  0  0  0  0  0  0  0  0  0  0
   -6.3252    7.2724    0.3328 C   0  0  0  0  0  0  0  0  0  0  0  0
   -5.9314    7.9649    1.4384 C   0  0  0  0  0  0  0  0  0  0  0  0
   -6.8233    8.6003    2.3041 C   0  0  0  0  0  0  0  0  0  0  0  0
   -5.3261    6.6516   -0.5579 C   0  0  0  0  0  0  0  0  0  0  0  0
   -4.9750    5.2428   -0.3314 C   0  0  1  0  0  0  0  0  0  0  0  0
   -4.4258    4.8309    0.9514 C   0  0  0  0  0  0  0  0  0  0  0  0
   -4.3361    5.4871    2.0041 O   0  0  0  0  0  0  0  0  0  0  0  0
   -3.9041    3.4731    1.0199 N   0  0  0  0  0  0  0  0  0  0  0  0
   -3.3631    3.0821    2.3080 C   0  0  1  0  0  0  0  0  0  0  0  0
   -3.3651    1.6330    2.5789 C   0  0  0  0  0  0  0  0  0  0  0  0
   -4.9458    0.8020    2.5892 S   0  0  0  0  0  0  0  0  0  0  0  0
   -5.8512    0.9460    0.6453 S   0  0  0  0  0  0  0  0  0  0  0  0
   -5.2368   -0.3634   -0.4214 C   0  0  0  0  0  0  0  0  0  0  0  0
   -5.5273   -1.7529    0.0986 C   0  0  2  0  0  0  0  0  0  0  0  0
   -4.7596   -2.6211   -0.8449 N   0  0  0  0  0  0  0  0  0  0  0  0
   -3.5239   -3.1427   -0.3832 C   0  0  0  0  0  0  0  0  0  0  0  0
   -3.2162   -2.8888    0.8194 O   0  0  0  0  0  0  0  0  0  0  0  0
   -2.6022   -3.9438   -1.2111 C   0  0  2  0  0  0  0  0  0  0  0  0
   -3.1849   -4.9056   -2.1643 C   0  0  0  0  0  0  0  0  0  0  0  0
   -4.0168   -5.9765   -1.6318 C   0  0  0  0  0  0  0  0  0  0  0  0
   -3.4010   -7.1389   -1.2029 C   0  0  0  0  0  0  0  0  0  0  0  0
   -4.0928   -8.2148   -0.6912 C   0  0  0  0  0  0  0  0  0  0  0  0
   -5.4742   -8.1732   -0.5834 C   0  0  0  0  0  0  0  0  0  0  0  0
   -6.1177   -7.0229   -1.0065 C   0  0  0  0  0  0  0  0  0  0  0  0
   -5.3959   -5.9465   -1.5212 C   0  0  0  0  0  0  0  0  0  0  0  0
   -1.4516   -4.4756   -0.4907 N   0  0  0  0  0  0  0  0  0  0  0  0
   -1.5397   -5.1074    0.7730 C   0  0  0  0  0  0  0  0  0  0  0  0
   -2.6358   -5.2681    1.3803 O   0  0  0  0  0  0  0  0  0  0  0  0
   -0.3344   -5.6504    1.5043 C   0  0  2  0  0  0  0  0  0  0  0  0
   -0.3203   -5.3137    2.9522 C   0  0  0  0  0  0  0  0  0  0  0  0
    0.8957   -5.3443    0.8094 N   0  0  0  0  0  0  0  0  0  0  0  0
    1.4241   -6.0486   -0.2699 C   0  0  0  0  0  0  0  0  0  0  0  0
    0.7084   -7.0042   -0.7409 O   0  0  0  0  0  0  0  0  0  0  0  0
    2.7278   -5.7948   -0.9333 C   0  0  2  0  0  0  0  0  0  0  0  0
    3.2884   -7.1508   -1.3019 C   0  0  0  0  0  0  0  0  0  0  0  0
    3.4720   -7.9776   -0.0946 C   0  0  0  0  0  0  0  0  0  0  0  0
    3.2523   -7.5541    1.0583 O   0  0  0  0  0  0  0  0  0  0  0  0
    3.9254   -9.3282   -0.3075 N   0  0  0  0  0  0  0  0  0  0  0  0
    3.6221   -4.9394   -0.2171 N   0  0  0  0  0  0  0  0  0  0  0  0
    4.0504   -3.6626   -0.5806 C   0  0  0  0  0  0  0  0  0  0  0  0
    3.5654   -3.2142   -1.6940 O   0  0  0  0  0  0  0  0  0  0  0  0
    4.9675   -2.7659    0.1073 C   0  0  1  0  0  0  0  0  0  0  0  0
    5.2751   -1.5846   -0.7150 N   0  0  0  0  0  0  0  0  0  0  0  0
    5.4361   -0.2866   -0.2528 C   0  0  0  0  0  0  0  0  0  0  0  0
    5.1433    0.0505    0.9271 O   0  0  0  0  0  0  0  0  0  0  0  0
    5.9464    0.7546   -1.1446 C   0  0  1  0  0  0  0  0  0  0  0  0
    5.8095    2.0986   -0.5559 N   0  0  0  0  0  0  0  0  0  0  0  0
    6.1081    3.1978   -1.4354 C   0  0  0  0  0  0  0  0  0  0  0  0
    6.4772    2.8791   -2.5940 O   0  0  0  0  0  0  0  0  0  0  0  0
    6.0230    4.6000   -1.0827 C   0  0  2  0  0  0  0  0  0  0  0  0
    4.6062    4.8560   -0.5750 N   0  0  0  0  0  0  0  0  0  0  0  0
    4.4624    5.2821    0.7492 C   0  0  0  0  0  0  0  0  0  0  0  0
    5.6170    5.8728    1.0005 O   0  0  0  0  0  0  0  0  0  0  0  0
    3.5671    5.3298    1.8597 C   0  0  0  0  0  0  0  0  0  0  0  0
    2.1224    6.2410    2.0691 S   0  0  0  0  0  0  0  0  0  0  0  0
    0.5777    5.8682    1.2934 C   0  0  0  0  0  0  0  0  0  0  0  0
    0.1529    4.4498    1.4805 C   0  0  1  0  0  0  0  0  0  0  0  0
   -1.2295    4.1007    1.3064 N   0  0  0  0  0  0  0  0  0  0  0  0
   -1.9042    3.4990    2.3833 C   0  0  0  0  0  0  0  0  0  0  0  0
   -1.2927    3.2840    3.4664 O   0  0  0  0  0  0  0  0  0  0  0  0
    0.8301    3.7089    0.3085 C   0  0  0  0  0  0  0  0  0  0  0  0
    0.5154    2.5198    0.0568 O   0  0  0  0  0  0  0  0  0  0  0  0
    1.7697    4.3428   -0.4798 N   0  0  0  0  0  0  0  0  0  0  0  0
    2.5783    3.8483   -1.5768 C   0  0  1  0  0  0  0  0  0  0  0  0
    1.8239    3.9879   -2.8919 C   0  0  0  0  0  0  0  0  0  0  0  0
    1.4612    5.3622   -3.2515 C   0  0  0  0  0  0  0  0  0  0  0  0
    2.1421    6.2973   -4.0012 C   0  0  0  0  0  0  0  0  0  0  0  0
    1.3743    7.4022   -4.0564 N   0  0  0  0  0  0  0  0  0  0  0  0
    0.2452    7.1995   -3.3761 C   0  0  0  0  0  0  0  0  0  0  0  0
    0.3014    5.9641   -2.8903 N   0  0  0  0  0  0  0  0  0  0  0  0
    3.6992    4.8937   -1.6587 C   0  0  0  0  0  0  0  0  0  0  0  0
    6.3816    5.6023   -2.1069 C   0  0  0  0  0  0  0  0  0  0  0  0
    7.7560    5.5707   -2.6057 C   0  0  0  0  0  0  0  0  0  0  0  0
    8.7183    6.2435   -1.8389 C   0  0  0  0  0  0  0  0  0  0  0  0
   10.0395    6.3206   -2.2016 C   0  0  0  0  0  0  0  0  0  0  0  0
   10.4583    5.7174   -3.3647 C   0  0  0  0  0  0  0  0  0  0  0  0
    9.5335    5.0435   -4.1458 C   0  0  0  0  0  0  0  0  0  0  0  0
    8.1944    4.9764   -3.7617 C   0  0  0  0  0  0  0  0  0  0  0  0
    7.5266    0.5800   -1.0234 C   0  0  0  0  0  0  0  0  0  0  0  0
    7.8159    0.8101    0.4407 C   0  0  0  0  0  0  0  0  0  0  0  0
    9.3123    0.7457    0.7694 C   0  0  0  0  0  0  0  0  0  0  0  0
    9.8744   -0.5410    0.4559 N   0  0  0  0  0  0  0  0  0  0  0  0
   10.8296   -0.9320    1.2661 C   0  0  0  0  0  0  0  0  0  0  0  0
   11.1517   -0.0176    2.3203 N   0  0  0  0  0  0  0  0  0  0  0  0
   11.4996   -2.1735    1.1258 N   0  0  0  0  0  0  0  0  0  0  0  0
    4.6819   -2.3805    1.5232 C   0  0  0  0  0  0  0  0  0  0  0  0
    4.6398   -3.5512    2.4370 C   0  0  0  0  0  0  0  0  0  0  0  0
    3.5711   -4.0956    3.1201 C   0  0  0  0  0  0  0  0  0  0  0  0
    3.9877   -5.1405    3.8812 N   0  0  0  0  0  0  0  0  0  0  0  0
    5.3163   -5.3033    3.7182 C   0  0  0  0  0  0  0  0  0  0  0  0
    5.7302   -4.3244    2.8278 C   0  0  0  0  0  0  0  0  0  0  0  0
    7.0820   -4.3178    2.5239 C   0  0  0  0  0  0  0  0  0  0  0  0
    7.9726   -5.2309    3.0683 C   0  0  0  0  0  0  0  0  0  0  0  0
    7.5462   -6.1996    3.9516 C   0  0  0  0  0  0  0  0  0  0  0  0
    6.2072   -6.2185    4.2654 C   0  0  0  0  0  0  0  0  0  0  0  0
   -6.9535   -2.0631   -0.0037 C   0  0  0  0  0  0  0  0  0  0  0  0
   -7.2814   -2.9824   -0.8320 O   0  0  0  0  0  0  0  0  0  0  0  0
   -8.0084   -1.4661    0.7123 N   0  0  0  0  0  0  0  0  0  0  0  0
   -9.3809   -1.9201    0.4898 C   0  0  2  0  0  0  0  0  0  0  0  0
   -9.6111   -3.2529    1.0640 C   0  0  0  0  0  0  0  0  0  0  0  0
   -8.6064   -3.8314    1.5988 O   0  0  0  0  0  0  0  0  0  0  0  0
  -10.8471   -3.9395    1.0719 N   0  0  0  0  0  0  0  0  0  0  0  0
   -9.8645   -1.7256   -0.9090 C   0  0  0  0  0  0  0  0  0  0  0  0
  -11.2361   -2.2182   -1.1102 C   0  0  0  0  0  0  0  0  0  0  0  0
  -12.3903   -1.5094   -0.8806 C   0  0  0  0  0  0  0  0  0  0  0  0
  -13.6367   -2.0516   -1.1233 C   0  0  0  0  0  0  0  0  0  0  0  0
  -13.7474   -3.3460   -1.6115 C   0  0  0  0  0  0  0  0  0  0  0  0
  -12.6042   -4.0846   -1.8536 C   0  0  0  0  0  0  0  0  0  0  0  0
  -11.3734   -3.5222   -1.6045 C   0  0  0  0  0  0  0  0  0  0  0  0
  -14.9894   -3.9145   -1.8617 O   0  0  0  0  0  0  0  0  0  0  0  0
   -5.9303    4.3409   -0.9298 N   0  0  0  0  0  0  0  0  0  0  0  0
   -8.7987    9.4803    3.7601 H   0  0  0  0  0  0  0  0  0  0  0  0
   -9.6415    7.7514    0.6828 H   0  0  0  0  0  0  0  0  0  0  0  0
   -8.0124    6.6452   -0.8213 H   0  0  0  0  0  0  0  0  0  0  0  0
   -4.8796    8.0961    1.7376 H   0  0  0  0  0  0  0  0  0  0  0  0
   -6.4588    9.1398    3.1828 H   0  0  0  0  0  0  0  0  0  0  0  0
   -5.7957    6.7136   -1.5973 H   0  0  0  0  0  0  0  0  0  0  0  0
   -4.4237    7.3099   -0.6731 H   0  0  0  0  0  0  0  0  0  0  0  0
   -4.0473    5.0724   -1.0524 H   0  0  0  0  0  0  0  0  0  0  0  0
   -3.9369    2.8469    0.1852 H   0  0  0  0  0  0  0  0  0  0  0  0
   -3.8351    3.6572    3.1040 H   0  0  0  0  0  0  0  0  0  0  0  0
   -2.7407    1.0741    1.7922 H   0  0  0  0  0  0  0  0  0  0  0  0
   -2.8704    1.3964    3.5667 H   0  0  0  0  0  0  0  0  0  0  0  0
   -4.1445   -0.2216   -0.6136 H   0  0  0  0  0  0  0  0  0  0  0  0
   -5.7478   -0.2495   -1.4117 H   0  0  0  0  0  0  0  0  0  0  0  0
   -5.1053   -1.8411    1.1127 H   0  0  0  0  0  0  0  0  0  0  0  0
   -5.1622   -2.7981   -1.7842 H   0  0  0  0  0  0  0  0  0  0  0  0
   -2.1089   -3.1249   -1.8617 H   0  0  0  0  0  0  0  0  0  0  0  0
   -3.7147   -4.3013   -2.9556 H   0  0  0  0  0  0  0  0  0  0  0  0
   -2.3176   -5.3526   -2.7407 H   0  0  0  0  0  0  0  0  0  0  0  0
   -2.3134   -7.2143   -1.2694 H   0  0  0  0  0  0  0  0  0  0  0  0
   -3.6080   -9.1251   -0.3539 H   0  0  0  0  0  0  0  0  0  0  0  0
   -5.9873   -9.0152   -0.1841 H   0  0  0  0  0  0  0  0  0  0  0  0
   -7.1853   -6.9300   -0.9506 H   0  0  0  0  0  0  0  0  0  0  0  0
   -5.8920   -5.0586   -1.8618 H   0  0  0  0  0  0  0  0  0  0  0  0
   -0.4655   -4.4133   -0.8940 H   0  0  0  0  0  0  0  0  0  0  0  0
   -0.4888   -6.7722    1.3461 H   0  0  0  0  0  0  0  0  0  0  0  0
    0.1746   -6.1382    3.5104 H   0  0  0  0  0  0  0  0  0  0  0  0
    0.2270   -4.3745    3.1840 H   0  0  0  0  0  0  0  0  0  0  0  0
   -1.3657   -5.2796    3.3419 H   0  0  0  0  0  0  0  0  0  0  0  0
    1.4228   -4.5087    1.1618 H   0  0  0  0  0  0  0  0  0  0  0  0
    2.4503   -5.2949   -1.9305 H   0  0  0  0  0  0  0  0  0  0  0  0
    2.5592   -7.7244   -1.9472 H   0  0  0  0  0  0  0  0  0  0  0  0
    4.2010   -7.0828   -1.9337 H   0  0  0  0  0  0  0  0  0  0  0  0
    3.5697  -10.1382    0.2485 H   0  0  0  0  0  0  0  0  0  0  0  0
    4.6478   -9.4876   -1.0605 H   0  0  0  0  0  0  0  0  0  0  0  0
    4.0143   -5.3436    0.6871 H   0  0  0  0  0  0  0  0  0  0  0  0
    6.0129   -3.2413    0.1952 H   0  0  0  0  0  0  0  0  0  0  0  0
    5.3732   -1.8054   -1.7417 H   0  0  0  0  0  0  0  0  0  0  0  0
    5.7348    0.7077   -2.1998 H   0  0  0  0  0  0  0  0  0  0  0  0
    5.5136    2.2382    0.4357 H   0  0  0  0  0  0  0  0  0  0  0  0
    6.7654    4.7377   -0.2493 H   0  0  0  0  0  0  0  0  0  0  0  0
    4.2315    5.5941    2.7870 H   0  0  0  0  0  0  0  0  0  0  0  0
    3.3711    4.2102    2.2154 H   0  0  0  0  0  0  0  0  0  0  0  0
    0.4729    6.2800    0.2919 H   0  0  0  0  0  0  0  0  0  0  0  0
   -0.2066    6.4642    1.8825 H   0  0  0  0  0  0  0  0  0  0  0  0
    0.5628    4.0765    2.4406 H   0  0  0  0  0  0  0  0  0  0  0  0
   -1.7785    4.2519    0.4331 H   0  0  0  0  0  0  0  0  0  0  0  0
    1.9246    5.3930   -0.2914 H   0  0  0  0  0  0  0  0  0  0  0  0
    2.8682    2.8227   -1.4607 H   0  0  0  0  0  0  0  0  0  0  0  0
    2.4120    3.5457   -3.7151 H   0  0  0  0  0  0  0  0  0  0  0  0
    0.8713    3.4184   -2.8267 H   0  0  0  0  0  0  0  0  0  0  0  0
    3.1083    6.1706   -4.4558 H   0  0  0  0  0  0  0  0  0  0  0  0
   -0.5263    7.9713   -3.2899 H   0  0  0  0  0  0  0  0  0  0  0  0
   -0.4424    5.5165   -2.3100 H   0  0  0  0  0  0  0  0  0  0  0  0
    3.2525    5.9031   -1.8866 H   0  0  0  0  0  0  0  0  0  0  0  0
    4.1446    4.6189   -2.6485 H   0  0  0  0  0  0  0  0  0  0  0  0
    6.2077    6.6307   -1.6660 H   0  0  0  0  0  0  0  0  0  0  0  0
    5.7329    5.6189   -3.0278 H   0  0  0  0  0  0  0  0  0  0  0  0
    8.4338    6.7327   -0.9061 H   0  0  0  0  0  0  0  0  0  0  0  0
   10.7746    6.8390   -1.6196 H   0  0  0  0  0  0  0  0  0  0  0  0
   11.5084    5.7600   -3.6898 H   0  0  0  0  0  0  0  0  0  0  0  0
    9.8754    4.5745   -5.0588 H   0  0  0  0  0  0  0  0  0  0  0  0
    7.5232    4.4519   -4.4218 H   0  0  0  0  0  0  0  0  0  0  0  0
    7.7790   -0.4358   -1.3093 H   0  0  0  0  0  0  0  0  0  0  0  0
    8.0073    1.3822   -1.5992 H   0  0  0  0  0  0  0  0  0  0  0  0
    7.3551    0.0001    1.0695 H   0  0  0  0  0  0  0  0  0  0  0  0
    7.4436    1.7634    0.8297 H   0  0  0  0  0  0  0  0  0  0  0  0
    9.3474    0.8727    1.8949 H   0  0  0  0  0  0  0  0  0  0  0  0
    9.8633    1.5857    0.3645 H   0  0  0  0  0  0  0  0  0  0  0  0
   10.6921   -0.0841    3.2680 H   0  0  0  0  0  0  0  0  0  0  0  0
   11.8513    0.7543    2.2088 H   0  0  0  0  0  0  0  0  0  0  0  0
   12.5239   -2.2222    1.3140 H   0  0  0  0  0  0  0  0  0  0  0  0
   10.9101   -2.9874    0.8393 H   0  0  0  0  0  0  0  0  0  0  0  0
    3.8208   -1.7243    1.6692 H   0  0  0  0  0  0  0  0  0  0  0  0
    5.6243   -1.8306    1.8775 H   0  0  0  0  0  0  0  0  0  0  0  0
    2.5567   -3.7632    3.0915 H   0  0  0  0  0  0  0  0  0  0  0  0
    3.4096   -5.7528    4.5166 H   0  0  0  0  0  0  0  0  0  0  0  0
    7.5140   -3.5834    1.8587 H   0  0  0  0  0  0  0  0  0  0  0  0
    9.0114   -5.2023    2.8103 H   0  0  0  0  0  0  0  0  0  0  0  0
    8.2748   -6.8929    4.3458 H   0  0  0  0  0  0  0  0  0  0  0  0
    5.8681   -6.9722    4.9576 H   0  0  0  0  0  0  0  0  0  0  0  0
   -7.7601   -0.7104    1.3868 H   0  0  0  0  0  0  0  0  0  0  0  0
  -10.0069   -1.2027    1.1198 H   0  0  0  0  0  0  0  0  0  0  0  0
  -10.8845   -4.9722    0.8278 H   0  0  0  0  0  0  0  0  0  0  0  0
  -11.7647   -3.4704    1.3180 H   0  0  0  0  0  0  0  0  0  0  0  0
   -9.1972   -2.1294   -1.7058 H   0  0  0  0  0  0  0  0  0  0  0  0
   -9.9190   -0.6150   -1.1699 H   0  0  0  0  0  0  0  0  0  0  0  0
  -12.2826   -0.5106   -0.4969 H   0  0  0  0  0  0  0  0  0  0  0  0
  -14.5439   -1.4819   -0.9450 H   0  0  0  0  0  0  0  0  0  0  0  0
  -12.6392   -5.0908   -2.2335 H   0  0  0  0  0  0  0  0  0  0  0  0
  -10.4793   -4.1294   -1.8059 H   0  0  0  0  0  0  0  0  0  0  0  0
  -15.0284   -4.7435   -2.4297 H   0  0  0  0  0  0  0  0  0  0  0  0
   -6.7620    4.1407   -0.3339 H   0  0  0  0  0  0  0  0  0  0  0  0
   -5.4492    3.4210   -1.0609 H   0  0  0  0  0  0  0  0  0  0  0  0
  1  2  1  0
  2  3  2  0
  3  4  1  0
  4  5  2  0
  5  6  1  0
  6  7  2  0
  5  8  1  0
  8  9  1  0
  9 10  1  0
 10 11  2  0
 10 12  1  0
 12 13  1  0
 13 14  1  0
 14 15  1  0
 15 16  1  0
 16 17  1  0
 17 18  1  0
 18 19  1  0
 19 20  1  0
 20 21  2  0
 20 22  1  0
 22 23  1  0
 23 24  1  0
 24 25  2  0
 25 26  1  0
 26 27  2  0
 27 28  1  0
 28 29  2  0
 22 30  1  0
 30 31  1  0
 31 32  2  0
 31 33  1  0
 33 34  1  0
 33 35  1  0
 35 36  1  0
 36 37  2  0
 36 38  1  0
 38 39  1  0
 39 40  1  0
 40 41  2  0
 40 42  1  0
 38 43  1  0
 43 44  1  0
 44 45  2  0
 44 46  1  0
 46 47  1  0
 47 48  1  0
 48 49  2  0
 48 50  1  0
 50 51  1  0
 51 52  1  0
 52 53  2  0
 52 54  1  0
 54 55  1  0
 55 56  1  0
 56 57  2  0
 56 58  1  0
 58 59  1  0
 59 60  1  0
 60 61  1  0
 61 62  1  0
 62 63  1  0
 63 64  2  0
 61 65  1  0
 65 66  2  0
 65 67  1  0
 67 68  1  0
 68 69  1  0
 69 70  1  0
 70 71  2  0
 71 72  1  0
 72 73  2  0
 73 74  1  0
 68 75  1  0
 54 76  1  0
 76 77  1  0
 77 78  2  0
 78 79  1  0
 79 80  2  0
 80 81  1  0
 81 82  2  0
 50 83  1  0
 83 84  1  0
 84 85  1  0
 85 86  1  0
 86 87  2  3
 87 88  1  0
 87 89  1  0
 46 90  1  0
 90 91  1  0
 91 92  2  0
 92 93  1  0
 93 94  1  0
 94 95  2  0
 95 96  1  0
 96 97  2  0
 97 98  1  0
 98 99  2  0
 18100  1  0
100101  2  0
100102  1  0
102103  1  0
103104  1  0
104105  2  0
104106  1  0
103107  1  0
107108  1  0
108109  2  0
109110  1  0
110111  2  0
111112  1  0
112113  2  0
111114  1  0
  9115  1  0
  7  2  1  0
 63 13  1  0
 74 70  1  0
 82 77  1  0
 95 91  1  0
113108  1  0
 29 24  1  0
 75 55  1  0
 99 94  1  0
  1116  1  0
  3117  1  0
  4118  1  0
  6119  1  0
  7120  1  0
  8121  1  0
  8122  1  0
  9123  1  6
 12124  1  0
 13125  1  1
 14126  1  0
 14127  1  0
 17128  1  0
 17129  1  0
 18130  1  1
 19131  1  0
 22132  1  6
 23133  1  0
 23134  1  0
 25135  1  0
 26136  1  0
 27137  1  0
 28138  1  0
 29139  1  0
 30140  1  0
 33141  1  1
 34142  1  0
 34143  1  0
 34144  1  0
 35145  1  0
 38146  1  6
 39147  1  0
 39148  1  0
 42149  1  0
 42150  1  0
 43151  1  0
 46152  1  1
 47153  1  0
 50154  1  6
 51155  1  0
 54156  1  1
 58157  1  0
 58158  1  0
 60159  1  0
 60160  1  0
 61161  1  1
 62162  1  0
 67163  1  0
 68164  1  1
 69165  1  0
 69166  1  0
 71167  1  0
 73168  1  0
 74169  1  0
 75170  1  0
 75171  1  0
 76172  1  0
 76173  1  0
 78174  1  0
 79175  1  0
 80176  1  0
 81177  1  0
 82178  1  0
 83179  1  0
 83180  1  0
 84181  1  0
 84182  1  0
 85183  1  0
 85184  1  0
 88185  1  0
 88186  1  0
 89187  1  0
 89188  1  0
 90189  1  0
 90190  1  0
 92191  1  0
 93192  1  0
 96193  1  0
 97194  1  0
 98195  1  0
 99196  1  0
102197  1  0
103198  1  1
106199  1  0
106200  1  0
107201  1  0
107202  1  0
109203  1  0
110204  1  0
112205  1  0
113206  1  0
114207  1  0
115208  1  0
115209  1  0
M  END
>  <Ligand ID>  (1) 
LIG0001135

>  <Ligand>  (1) 
BDBM50339343

>  <SMILES>  (1) 
Oc1ccc(cc1)C[C@@H](C(=O)N[C@H]1CSSC[C@H](NC(=O)[C@H](Cc2ccccc2)NC(=O)[C@H](C)NC(=O)[C@H](CC(=O)N)NC(=O)[C@@H](NC(=O)[C@@H](NC(=O)[C@H](N2C(=O)CSC[C@@H](NC1=O)C(=O)N[C@@H](Cc1cnc[nH]1)C2)Cc1ccccc1)CCCN=C(N)N)Cc1c[nH]c2c1cccc2)C(=O)N[C@H](C(=O)N)Cc1ccc(cc1)O)N

>  <CID>  (1) 
91932356.0

>  <ChEMBL ID>  (1) 
nan

>  <InChiKey>  (1) 
LJABAIOSDNQOHO-AGOVHYEISA-N

>  <InChi>  (1) 
InChI=1S/C77H94N20O15S3/c1-42-67(103)91-57(29-43-11-4-2-5-12-43)71(107)96-62(74(110)90-56(66(80)102)28-46-20-24-51(99)25-21-46)39-115-114-38-61(94-68(104)53(78)27-45-18-22-50(98)23-19-45)75(111)95-60-37-113-40-65(101)97(36-49(88-73(60)109)32-48-35-83-41-86-48)63(30-44-13-6-3-7-14-44)76(112)89-55(17-10-26-84-77(81)82)69(105)92-58(31-47-34-85-54-16-9-8-15-52(47)54)72(108)93-59(33-64(79)100)70(106)87-42/h2-9,11-16,18-25,34-35,41-42,49,53,55-63,85,98-99H,10,17,26-33,36-40,78H2,1H3,(H2,79,100)(H2,80,102)(H,83,86)(H,87,106)(H,88,109)(H,89,112)(H,90,110)(H,91,103)(H,92,105)(H,93,108)(H,94,104)(H,95,111)(H,96,107)(H4,81,82,84)/t42-,49-,53-,55-,56-,57-,58-,59-,60+,61-,62-,63+/m0/s1

>  <IUPAC Name>  (1) 
(2R,5S,8S,11S,14S,17S,20R,25R,28S,34S)-N-[(2S)-1-amino-3-(4-hydroxyphenyl)-1-oxopropan-2-yl]-25-[[(2S)-2-amino-3-(4-hydroxyphenyl)propanoyl]amino]-11-(2-amino-2-oxoethyl)-2,17-dibenzyl-5-[3-(diaminomethylideneamino)propyl]-34-(1H-imidazol-5-ylmethyl)-8-(1H-indol-3-ylmethyl)-14-methyl-3,6,9,12,15,18,26,32,36-nonaoxo-22,23,30-trithia-1,4,7,10,13,16,19,27,35-nonazabicyclo[26.4.4]hexatriacontane-20-carboxamide

$$$$
