
     RDKit          3D

 65 69  0  0  0  0  0  0  0  0999 V2000
    3.4805    1.8397   -0.9947 O   0  0  0  0  0  0  0  0  0  0  0  0
    3.1106    0.6490   -0.8148 C   0  0  0  0  0  0  0  0  0  0  0  0
    1.7493    0.2865   -0.4281 C   0  0  0  0  0  0  0  0  0  0  0  0
    1.2145   -0.9113   -0.1811 N   0  0  0  0  0  0  0  0  0  0  0  0
   -0.0870   -0.8177    0.1366 N   0  0  0  0  0  0  0  0  0  0  0  0
   -0.3923    0.4913    0.0894 C   0  0  0  0  0  0  0  0  0  0  0  0
    0.7536    1.2258   -0.2669 C   0  0  0  0  0  0  0  0  0  0  0  0
    0.8771    2.6973   -0.4462 C   0  0  0  0  0  0  0  0  0  0  0  0
   -0.4064    3.4108   -0.1204 C   0  0  0  0  0  0  0  0  0  0  0  0
   -0.9639    3.1042    1.2102 C   0  0  0  0  0  0  0  0  0  0  0  0
   -2.1575    2.1374    1.1892 C   0  0  0  0  0  0  0  0  0  0  0  0
   -1.7546    0.9837    0.3769 C   0  0  0  0  0  0  0  0  0  0  0  0
   -2.6874    0.2480   -0.2315 C   0  0  0  0  0  0  0  0  0  0  0  0
   -4.1065    0.4898   -0.1334 C   0  0  0  0  0  0  0  0  0  0  0  0
   -4.8265    0.7175    1.0013 C   0  0  0  0  0  0  0  0  0  0  0  0
   -6.2018    0.9684    0.9744 C   0  0  0  0  0  0  0  0  0  0  0  0
   -6.8781    0.9911   -0.2270 C   0  0  0  0  0  0  0  0  0  0  0  0
   -6.1674    0.7614   -1.3958 C   0  0  0  0  0  0  0  0  0  0  0  0
   -4.8123    0.5176   -1.3369 C   0  0  0  0  0  0  0  0  0  0  0  0
   -8.3225    1.2451   -0.3643 C   0  0  0  0  0  0  0  0  0  0  0  0
   -8.6110    2.0568   -1.4493 F   0  0  0  0  0  0  0  0  0  0  0  0
   -9.0312    0.0514   -0.4523 F   0  0  0  0  0  0  0  0  0  0  0  0
   -8.8059    1.8898    0.7555 F   0  0  0  0  0  0  0  0  0  0  0  0
   -0.9473   -1.9254    0.4721 C   0  0  0  0  0  0  0  0  0  0  0  0
   -1.0246   -3.0557   -0.3111 C   0  0  0  0  0  0  0  0  0  0  0  0
   -1.8786   -4.0577    0.1205 C   0  0  0  0  0  0  0  0  0  0  0  0
   -2.6232   -3.9516    1.2721 C   0  0  0  0  0  0  0  0  0  0  0  0
   -2.5495   -2.8128    2.0675 C   0  0  0  0  0  0  0  0  0  0  0  0
   -1.6942   -1.8244    1.6232 C   0  0  0  0  0  0  0  0  0  0  0  0
   -3.4757   -2.6359    3.5376 Cl  0  0  0  0  0  0  0  0  0  0  0  0
   -3.7042   -5.2156    1.8236 Cl  0  0  0  0  0  0  0  0  0  0  0  0
    4.0900   -0.3580   -1.0077 N   0  0  0  0  0  0  0  0  0  0  0  0
    5.4366   -0.0048   -1.3948 C   0  0  1  0  0  0  0  0  0  0  0  0
    6.4834   -0.5512   -0.5212 C   0  0  0  0  0  0  0  0  0  0  0  0
    6.3706   -1.8779   -0.1415 C   0  0  0  0  0  0  0  0  0  0  0  0
    7.3092   -2.4966    0.6783 C   0  0  0  0  0  0  0  0  0  0  0  0
    8.3632   -1.6986    1.0896 C   0  0  0  0  0  0  0  0  0  0  0  0
    8.4749   -0.3788    0.7118 C   0  0  0  0  0  0  0  0  0  0  0  0
    7.5390    0.2020   -0.0935 N   0  0  0  0  0  0  0  0  0  0  0  0
    5.5945   -0.4919   -2.8336 C   0  0  0  0  0  0  0  0  0  0  0  0
    1.6938    3.0631    0.1949 H   0  0  0  0  0  0  0  0  0  0  0  0
    1.1347    2.9495   -1.4972 H   0  0  0  0  0  0  0  0  0  0  0  0
   -1.1826    3.2262   -0.8969 H   0  0  0  0  0  0  0  0  0  0  0  0
   -0.2096    4.5112   -0.1902 H   0  0  0  0  0  0  0  0  0  0  0  0
   -1.3382    4.0241    1.6875 H   0  0  0  0  0  0  0  0  0  0  0  0
   -0.1823    2.6876    1.9149 H   0  0  0  0  0  0  0  0  0  0  0  0
   -2.4416    1.8926    2.2351 H   0  0  0  0  0  0  0  0  0  0  0  0
   -3.0268    2.6233    0.7159 H   0  0  0  0  0  0  0  0  0  0  0  0
   -2.4079   -0.6100   -0.8758 H   0  0  0  0  0  0  0  0  0  0  0  0
   -4.3673    0.6974    1.9704 H   0  0  0  0  0  0  0  0  0  0  0  0
   -6.7553    1.1468    1.8872 H   0  0  0  0  0  0  0  0  0  0  0  0
   -6.6642    0.7733   -2.3425 H   0  0  0  0  0  0  0  0  0  0  0  0
   -4.3057    0.3456   -2.2754 H   0  0  0  0  0  0  0  0  0  0  0  0
   -0.4452   -3.1468   -1.2128 H   0  0  0  0  0  0  0  0  0  0  0  0
   -1.9989   -4.9863   -0.4399 H   0  0  0  0  0  0  0  0  0  0  0  0
   -1.6322   -0.9302    2.2436 H   0  0  0  0  0  0  0  0  0  0  0  0
    3.8872   -1.3736   -0.8817 H   0  0  0  0  0  0  0  0  0  0  0  0
    5.5644    1.1070   -1.4655 H   0  0  0  0  0  0  0  0  0  0  0  0
    5.5481   -2.4912   -0.4648 H   0  0  0  0  0  0  0  0  0  0  0  0
    7.1897   -3.5250    0.9514 H   0  0  0  0  0  0  0  0  0  0  0  0
    9.0975   -2.1868    1.7315 H   0  0  0  0  0  0  0  0  0  0  0  0
    9.3285    0.1776    1.0749 H   0  0  0  0  0  0  0  0  0  0  0  0
    4.6455   -0.2311   -3.3474 H   0  0  0  0  0  0  0  0  0  0  0  0
    6.4899   -0.0427   -3.3035 H   0  0  0  0  0  0  0  0  0  0  0  0
    5.6408   -1.6002   -2.7925 H   0  0  0  0  0  0  0  0  0  0  0  0
  1  2  2  0
  2  3  1  0
  3  4  2  0
  4  5  1  0
  5  6  1  0
  6  7  2  0
  7  8  1  0
  8  9  1  0
  9 10  1  0
 10 11  1  0
 11 12  1  0
 12 13  2  0
 13 14  1  0
 14 15  2  0
 15 16  1  0
 16 17  2  0
 17 18  1  0
 18 19  2  0
 17 20  1  0
 20 21  1  0
 20 22  1  0
 20 23  1  0
  5 24  1  0
 24 25  2  0
 25 26  1  0
 26 27  2  0
 27 28  1  0
 28 29  2  0
 28 30  1  0
 27 31  1  0
  2 32  1  0
 32 33  1  0
 33 34  1  0
 34 35  2  0
 35 36  1  0
 36 37  2  0
 37 38  1  0
 38 39  2  0
 33 40  1  0
  7  3  1  0
 19 14  1  0
 29 24  1  0
 39 34  1  0
 12  6  1  0
  8 41  1  0
  8 42  1  0
  9 43  1  0
  9 44  1  0
 10 45  1  0
 10 46  1  0
 11 47  1  0
 11 48  1  0
 13 49  1  0
 15 50  1  0
 16 51  1  0
 18 52  1  0
 19 53  1  0
 25 54  1  0
 26 55  1  0
 29 56  1  0
 32 57  1  0
 33 58  1  6
 35 59  1  0
 36 60  1  0
 37 61  1  0
 38 62  1  0
 40 63  1  0
 40 64  1  0
 40 65  1  0
M  END
>  <Ligand ID>  (1) 
LIG0005423

>  <Ligand>  (1) 
CHEMBL3932852

>  <SMILES>  (1) 
O=C(c1nn(c2c1CCCC/C/2=C\c1ccc(cc1)C(F)(F)F)c1ccc(c(c1)Cl)Cl)N[C@@H](c1ccccn1)C

>  <CID>  (1) 
134138796.0

>  <ChEMBL ID>  (1) 
nan

>  <InChiKey>  (1) 
PWTCANMLJBJRSK-RILMWAFASA-N

>  <InChi>  (1) 
InChI=1S/C30H25Cl2F3N4O/c1-18(26-8-4-5-15-36-26)37-29(40)27-23-7-3-2-6-20(16-19-9-11-21(12-10-19)30(33,34)35)28(23)39(38-27)22-13-14-24(31)25(32)17-22/h4-5,8-18H,2-3,6-7H2,1H3,(H,37,40)/b20-16+/t18-/m1/s1

>  <IUPAC Name>  (1) 
(8E)-1-(3,4-dichlorophenyl)-N-[(1R)-1-pyridin-2-ylethyl]-8-[[4-(trifluoromethyl)phenyl]methylidene]-4,5,6,7-tetrahydrocyclohepta[c]pyrazole-3-carboxamide

$$$$
