
     RDKit          3D

 48 52  0  0  0  0  0  0  0  0999 V2000
   -6.3503   -1.8452    1.3943 O   0  0  0  0  0  0  0  0  0  0  0  0
   -5.2417   -1.6599    0.5762 C   0  0  0  0  0  0  0  0  0  0  0  0
   -4.8581   -0.2050    0.4434 C   0  0  1  0  0  0  0  0  0  0  0  0
   -4.4938    0.5607    1.6399 C   0  0  0  0  0  0  0  0  0  0  0  0
   -3.3867    0.0942    0.7892 C   0  0  2  0  0  0  0  0  0  0  0  0
   -2.8510    0.9189   -0.3602 C   0  0  2  0  0  0  0  0  0  0  0  0
   -3.6978    0.3871   -1.5105 C   0  0  1  0  0  0  0  0  0  0  0  0
   -5.0818    0.4734   -0.8943 C   0  0  2  0  0  0  0  0  0  0  0  0
   -5.3891    1.8170   -0.7635 O   0  0  0  0  0  0  0  0  0  0  0  0
   -3.5809    1.1494   -2.6626 O   0  0  0  0  0  0  0  0  0  0  0  0
   -1.4426    0.6846   -0.5836 N   0  0  0  0  0  0  0  0  0  0  0  0
   -0.7971    0.3955   -1.7306 C   0  0  0  0  0  0  0  0  0  0  0  0
    0.5317    0.2597   -1.4506 N   0  0  0  0  0  0  0  0  0  0  0  0
    0.6989    0.4661   -0.1302 C   0  0  0  0  0  0  0  0  0  0  0  0
   -0.5358    0.7336    0.4223 C   0  0  0  0  0  0  0  0  0  0  0  0
   -0.6671    0.9839    1.7567 N   0  0  0  0  0  0  0  0  0  0  0  0
    0.4009    0.9778    2.5744 C   0  0  0  0  0  0  0  0  0  0  0  0
    1.6243    0.7152    2.0412 N   0  0  0  0  0  0  0  0  0  0  0  0
    1.7851    0.4638    0.7234 C   0  0  0  0  0  0  0  0  0  0  0  0
    3.0935    0.1944    0.2189 N   0  0  0  0  0  0  0  0  0  0  0  0
    4.2395    0.1917    1.1181 C   0  0  0  0  0  0  0  0  0  0  0  0
    5.5009   -0.1097    0.3917 C   0  0  0  0  0  0  0  0  0  0  0  0
    6.3039    0.8395   -0.1745 C   0  0  0  0  0  0  0  0  0  0  0  0
    7.4504    0.4099   -0.8206 C   0  0  0  0  0  0  0  0  0  0  0  0
    7.7895   -0.9306   -0.9013 C   0  0  0  0  0  0  0  0  0  0  0  0
    6.9746   -1.8997   -0.3262 C   0  0  0  0  0  0  0  0  0  0  0  0
    5.8428   -1.4639    0.3105 C   0  0  0  0  0  0  0  0  0  0  0  0
    7.4207   -3.9441   -0.4069 I   0  0  0  0  0  0  0  0  0  0  0  0
   -6.3065   -2.8017    1.6907 H   0  0  0  0  0  0  0  0  0  0  0  0
   -4.3951   -2.2569    1.0110 H   0  0  0  0  0  0  0  0  0  0  0  0
   -5.4337   -2.1060   -0.4260 H   0  0  0  0  0  0  0  0  0  0  0  0
   -4.6057    0.0242    2.6025 H   0  0  0  0  0  0  0  0  0  0  0  0
   -4.6535    1.6462    1.7513 H   0  0  0  0  0  0  0  0  0  0  0  0
   -2.7507   -0.7511    1.1222 H   0  0  0  0  0  0  0  0  0  0  0  0
   -3.1273    1.9585   -0.1872 H   0  0  0  0  0  0  0  0  0  0  0  0
   -3.4189   -0.6807   -1.6444 H   0  0  0  0  0  0  0  0  0  0  0  0
   -5.8380   -0.0754   -1.4888 H   0  0  0  0  0  0  0  0  0  0  0  0
   -5.7652    2.0808    0.0966 H   0  0  0  0  0  0  0  0  0  0  0  0
   -3.6670    0.5846   -3.4850 H   0  0  0  0  0  0  0  0  0  0  0  0
   -1.2664    0.2897   -2.7141 H   0  0  0  0  0  0  0  0  0  0  0  0
    0.2717    1.1803    3.6359 H   0  0  0  0  0  0  0  0  0  0  0  0
    3.2201   -0.0001   -0.7985 H   0  0  0  0  0  0  0  0  0  0  0  0
    4.1239   -0.4856    1.9666 H   0  0  0  0  0  0  0  0  0  0  0  0
    4.3134    1.2209    1.5210 H   0  0  0  0  0  0  0  0  0  0  0  0
    6.0219    1.8767   -0.1003 H   0  0  0  0  0  0  0  0  0  0  0  0
    8.1199    1.1478   -1.2878 H   0  0  0  0  0  0  0  0  0  0  0  0
    8.6743   -1.2824   -1.3980 H   0  0  0  0  0  0  0  0  0  0  0  0
    5.1996   -2.2278    0.7644 H   0  0  0  0  0  0  0  0  0  0  0  0
  1  2  1  0
  3  2  1  1
  3  4  1  0
  4  5  1  0
  5  6  1  0
  6  7  1  0
  7  8  1  0
  8  9  1  0
  7 10  1  0
  6 11  1  0
 11 12  1  0
 12 13  2  0
 13 14  1  0
 14 15  2  0
 15 16  1  0
 16 17  2  0
 17 18  1  0
 18 19  2  0
 19 20  1  0
 20 21  1  0
 21 22  1  0
 22 23  2  0
 23 24  1  0
 24 25  2  0
 25 26  1  0
 26 27  2  0
 26 28  1  0
  8  3  1  0
 15 11  1  0
 27 22  1  0
  5  3  1  0
 19 14  1  0
  1 29  1  0
  2 30  1  0
  2 31  1  0
  4 32  1  0
  4 33  1  0
  5 34  1  1
  6 35  1  1
  7 36  1  6
  8 37  1  6
  9 38  1  0
 10 39  1  0
 12 40  1  0
 17 41  1  0
 20 42  1  0
 21 43  1  0
 21 44  1  0
 23 45  1  0
 24 46  1  0
 25 47  1  0
 27 48  1  0
M  END
>  <Ligand ID>  (1) 
LIG0002437

>  <Ligand>  (1) 
CHEMBL417292

>  <SMILES>  (1) 
OC[C@]12C[C@@H]2[C@H]([C@@H]([C@@H]1O)O)n1cnc2c1ncnc2NCc1cccc(c1)I

>  <CID>  (1) 
9805713.0

>  <ChEMBL ID>  (1) 
nan

>  <InChiKey>  (1) 
VIXCVSNTFYSXDO-DPNDMPAOSA-N

>  <InChi>  (1) 
InChI=1S/C19H20IN5O3/c20-11-3-1-2-10(4-11)6-21-17-13-18(23-8-22-17)25(9-24-13)14-12-5-19(12,7-26)16(28)15(14)27/h1-4,8-9,12,14-16,26-28H,5-7H2,(H,21,22,23)/t12-,14-,15+,16+,19+/m1/s1

>  <IUPAC Name>  (1) 
(1R,2R,3S,4R,5S)-1-(hydroxymethyl)-4-[6-[(3-iodophenyl)methylamino]purin-9-yl]bicyclo[3.1.0]hexane-2,3-diol

$$$$
