
     RDKit          3D

 45 45  0  0  0  0  0  0  0  0999 V2000
   -3.7134   -2.4550    1.0978 C   0  0  0  0  0  0  0  0  0  0  0  0
   -4.0345   -1.2763    0.3889 O   0  0  0  0  0  0  0  0  0  0  0  0
   -3.0965   -0.7450   -0.4779 C   0  0  0  0  0  0  0  0  0  0  0  0
   -1.8926   -1.4099   -0.5951 C   0  0  0  0  0  0  0  0  0  0  0  0
   -0.9052   -0.9448   -1.4435 C   0  0  0  0  0  0  0  0  0  0  0  0
   -1.1893    0.2023   -2.1533 C   0  0  0  0  0  0  0  0  0  0  0  0
   -2.3919    0.8631   -2.0332 C   0  0  0  0  0  0  0  0  0  0  0  0
   -3.4045    0.4011   -1.1735 C   0  0  0  0  0  0  0  0  0  0  0  0
   -4.5430    1.1149   -1.1203 O   0  0  0  0  0  0  0  0  0  0  0  0
   -4.9688    2.2037   -0.4146 C   0  0  0  0  0  0  0  0  0  0  0  0
   -5.0106    2.1791    1.0375 C   0  0  0  0  0  0  0  0  0  0  0  0
   -4.6939    1.2726    1.8107 O   0  0  0  0  0  0  0  0  0  0  0  0
   -5.4833    3.3664    1.6653 O   0  0  0  0  0  0  0  0  0  0  0  0
   -2.6634    2.3282   -2.9863 Cl  0  0  0  0  0  0  0  0  0  0  0  0
    0.3883   -1.6176   -1.6002 C   0  0  0  0  0  0  0  0  0  0  0  0
    1.3742   -1.2514   -0.1269 P   0  0  0  0  0  0  0  0  0  0  0  0
    0.7721   -0.1126    0.6747 O   0  0  0  0  0  0  0  0  0  0  0  0
    3.0316   -0.7946   -0.6466 C   0  0  0  0  0  0  0  0  0  0  0  0
    3.6246    0.2843    0.2412 C   0  0  0  0  0  0  0  0  0  0  0  0
    5.0008    0.5990   -0.2660 C   0  0  2  0  0  0  0  0  0  0  0  0
    5.6034    1.6576    0.5919 C   0  0  0  0  0  0  0  0  0  0  0  0
    5.9543    2.7314    0.0464 O   0  0  0  0  0  0  0  0  0  0  0  0
    5.7493    1.4083    1.9545 O   0  0  0  0  0  0  0  0  0  0  0  0
    4.9307    1.0305   -1.6331 N   0  0  0  0  0  0  0  0  0  0  0  0
    1.3652   -2.6006    0.8936 O   0  0  0  0  0  0  0  0  0  0  0  0
    0.1751   -2.9943   -1.7252 O   0  0  0  0  0  0  0  0  0  0  0  0
   -3.4726   -3.3005    0.3914 H   0  0  0  0  0  0  0  0  0  0  0  0
   -2.7920   -2.3554    1.7160 H   0  0  0  0  0  0  0  0  0  0  0  0
   -4.5915   -2.8211    1.6783 H   0  0  0  0  0  0  0  0  0  0  0  0
   -1.6628   -2.3104   -0.0414 H   0  0  0  0  0  0  0  0  0  0  0  0
   -0.4541    0.6090   -2.8305 H   0  0  0  0  0  0  0  0  0  0  0  0
   -4.4537    3.1625   -0.6976 H   0  0  0  0  0  0  0  0  0  0  0  0
   -6.0449    2.3970   -0.7461 H   0  0  0  0  0  0  0  0  0  0  0  0
   -5.7361    3.3552    2.6400 H   0  0  0  0  0  0  0  0  0  0  0  0
    0.8831   -1.2737   -2.5297 H   0  0  0  0  0  0  0  0  0  0  0  0
    2.9882   -0.4000   -1.6701 H   0  0  0  0  0  0  0  0  0  0  0  0
    3.6590   -1.7048   -0.6438 H   0  0  0  0  0  0  0  0  0  0  0  0
    2.9897    1.1950    0.1015 H   0  0  0  0  0  0  0  0  0  0  0  0
    3.6007   -0.0250    1.2914 H   0  0  0  0  0  0  0  0  0  0  0  0
    5.6098   -0.3246   -0.1569 H   0  0  0  0  0  0  0  0  0  0  0  0
    6.3677    2.0616    2.4593 H   0  0  0  0  0  0  0  0  0  0  0  0
    5.6488    0.5529   -2.2169 H   0  0  0  0  0  0  0  0  0  0  0  0
    4.9078    2.0578   -1.7702 H   0  0  0  0  0  0  0  0  0  0  0  0
    2.2767   -2.8696    1.1274 H   0  0  0  0  0  0  0  0  0  0  0  0
    0.2975   -3.4464   -0.8717 H   0  0  0  0  0  0  0  0  0  0  0  0
  1  2  1  0
  2  3  1  0
  3  4  2  0
  4  5  1  0
  5  6  2  0
  6  7  1  0
  7  8  2  0
  8  9  1  0
  9 10  1  0
 10 11  1  0
 11 12  2  0
 11 13  1  0
  7 14  1  0
  5 15  1  0
 15 16  1  0
 16 17  2  0
 16 18  1  0
 18 19  1  0
 19 20  1  0
 20 21  1  0
 21 22  2  0
 21 23  1  0
 20 24  1  0
 16 25  1  0
 15 26  1  0
  8  3  1  0
  1 27  1  0
  1 28  1  0
  1 29  1  0
  4 30  1  0
  6 31  1  0
 10 32  1  0
 10 33  1  0
 13 34  1  0
 15 35  1  0
 18 36  1  0
 18 37  1  0
 19 38  1  0
 19 39  1  0
 20 40  1  6
 23 41  1  0
 24 42  1  0
 24 43  1  0
 25 44  1  0
 26 45  1  0
M  END
>  <Ligand ID>  (1) 
LIG0004724

>  <Ligand>  (1) 
US9212196, Derivative 7

>  <SMILES>  (1) 
COc1cc(cc(c1OCC(=O)O)Cl)C(P(=O)(CC[C@H](C(=O)O)N)O)O

>  <CID>  (1) 
122197939.0

>  <ChEMBL ID>  (1) 
nan

>  <InChiKey>  (1) 
CITKLHPQBXWCKK-UCWRFOARSA-N

>  <InChi>  (1) 
InChI=1S/C14H19ClNO9P/c1-24-10-5-7(4-8(15)12(10)25-6-11(17)18)14(21)26(22,23)3-2-9(16)13(19)20/h4-5,9,14,21H,2-3,6,16H2,1H3,(H,17,18)(H,19,20)(H,22,23)/t9-,14?/m1/s1

>  <IUPAC Name>  (1) 
(2R)-2-amino-4-[[[4-(carboxymethoxy)-3-chloro-5-methoxyphenyl]-hydroxymethyl]-hydroxyphosphoryl]butanoic acid

$$$$
