
     RDKit          3D

 30 31  0  0  0  0  0  0  0  0999 V2000
   -4.4175   -1.4674    0.2548 O   0  0  0  0  0  0  0  0  0  0  0  0
   -3.0586   -1.5049    0.6205 C   0  0  0  0  0  0  0  0  0  0  0  0
   -2.7282   -1.6992    1.8340 O   0  0  0  0  0  0  0  0  0  0  0  0
   -1.9791   -1.3222   -0.3779 C   0  0  2  0  0  0  0  0  0  0  0  0
   -1.0149   -0.2306    0.0299 C   0  0  1  0  0  0  0  0  0  0  0  0
    0.1010   -0.0293   -0.9848 C   0  0  1  0  0  0  0  0  0  0  0  0
   -0.8938    1.0229   -0.7031 C   0  0  2  0  0  0  0  0  0  0  0  0
   -0.5932    2.2817    0.0072 C   0  0  0  0  0  0  0  0  0  0  0  0
    0.2884    2.3974    0.9038 O   0  0  0  0  0  0  0  0  0  0  0  0
   -1.2885    3.4839   -0.2709 O   0  0  0  0  0  0  0  0  0  0  0  0
    1.4910   -0.0276   -0.5402 C   0  0  0  0  0  0  0  0  0  0  0  0
    2.4859   -0.0284   -1.5067 C   0  0  0  0  0  0  0  0  0  0  0  0
    3.8318   -0.0418   -1.1462 C   0  0  0  0  0  0  0  0  0  0  0  0
    4.2258   -0.0546    0.1666 C   0  0  0  0  0  0  0  0  0  0  0  0
    3.2539   -0.0542    1.1306 C   0  0  0  0  0  0  0  0  0  0  0  0
    1.9142   -0.0411    0.7713 C   0  0  0  0  0  0  0  0  0  0  0  0
   -2.5094   -1.1121   -1.7107 N   0  0  0  0  0  0  0  0  0  0  0  0
   -5.0333   -1.1389    1.0100 H   0  0  0  0  0  0  0  0  0  0  0  0
   -1.3935   -2.2649   -0.4087 H   0  0  0  0  0  0  0  0  0  0  0  0
   -0.7728   -0.2545    1.0923 H   0  0  0  0  0  0  0  0  0  0  0  0
   -0.0254   -0.4542   -2.0266 H   0  0  0  0  0  0  0  0  0  0  0  0
   -1.7215    1.1816   -1.4630 H   0  0  0  0  0  0  0  0  0  0  0  0
   -1.1905    4.3050    0.3138 H   0  0  0  0  0  0  0  0  0  0  0  0
    2.2602   -0.0188   -2.5694 H   0  0  0  0  0  0  0  0  0  0  0  0
    4.6172   -0.0424   -1.9076 H   0  0  0  0  0  0  0  0  0  0  0  0
    5.2685   -0.0648    0.4489 H   0  0  0  0  0  0  0  0  0  0  0  0
    3.5512   -0.0644    2.1906 H   0  0  0  0  0  0  0  0  0  0  0  0
    1.2020   -0.0518    1.5593 H   0  0  0  0  0  0  0  0  0  0  0  0
   -3.4933   -0.7641   -1.6929 H   0  0  0  0  0  0  0  0  0  0  0  0
   -2.3777   -1.9402   -2.3345 H   0  0  0  0  0  0  0  0  0  0  0  0
  1  2  1  0
  2  3  2  0
  2  4  1  0
  4  5  1  0
  5  6  1  0
  6  7  1  0
  7  8  1  0
  8  9  2  0
  8 10  1  0
  6 11  1  0
 11 12  2  0
 12 13  1  0
 13 14  2  0
 14 15  1  0
 15 16  2  0
  4 17  1  0
  7  5  1  0
 16 11  1  0
  1 18  1  0
  4 19  1  6
  5 20  1  1
  6 21  1  6
  7 22  1  6
 10 23  1  0
 12 24  1  0
 13 25  1  0
 14 26  1  0
 15 27  1  0
 16 28  1  0
 17 29  1  0
 17 30  1  0
M  END
>  <Ligand ID>  (1) 
LIG0002589

>  <Ligand>  (1) 
CHEMBL2114106

>  <SMILES>  (1) 
OC(=O)[C@H]([C@H]1[C@@H]([C@@H]1C(=O)O)c1ccccc1)N

>  <CID>  (1) 
10513896.0

>  <ChEMBL ID>  (1) 
nan

>  <InChiKey>  (1) 
IFLWVSHRWAIVQF-XKNYDFJKSA-N

>  <InChi>  (1) 
InChI=1S/C12H13NO4/c13-10(12(16)17)8-7(9(8)11(14)15)6-4-2-1-3-5-6/h1-5,7-10H,13H2,(H,14,15)(H,16,17)/t7-,8-,9-,10-/m0/s1

>  <IUPAC Name>  (1) 
(1S,2S,3S)-2-[(S)-amino(carboxy)methyl]-3-phenylcyclopropane-1-carboxylic acid

$$$$
