
     RDKit          3D

 23 22  0  0  0  0  0  0  0  0999 V2000
   -3.4155    0.3366   -0.7873 C   0  0  0  0  0  0  0  0  0  0  0  0
   -2.5774    0.0147    0.4344 C   0  0  0  0  0  0  0  0  0  0  0  0
   -1.1065    0.2481    0.0696 C   0  0  0  0  0  0  0  0  0  0  0  0
   -0.2505   -0.0595    1.2508 C   0  0  0  0  0  0  0  0  0  0  0  0
    1.2254    0.1283    1.0371 C   0  0  0  0  0  0  0  0  0  0  0  0
    1.7657   -0.7331   -0.0418 C   0  0  0  0  0  0  0  0  0  0  0  0
    1.0747   -1.5450   -0.7067 O   0  0  0  0  0  0  0  0  0  0  0  0
    3.1916   -0.6151   -0.3336 C   0  0  0  0  0  0  0  0  0  0  0  0
    3.9971    0.2129    0.3150 C   0  0  0  0  0  0  0  0  0  0  0  0
   -4.4124    0.7211   -0.4991 H   0  0  0  0  0  0  0  0  0  0  0  0
   -2.8565    1.0833   -1.3815 H   0  0  0  0  0  0  0  0  0  0  0  0
   -3.5100   -0.5603   -1.4515 H   0  0  0  0  0  0  0  0  0  0  0  0
   -2.7213   -1.0581    0.6463 H   0  0  0  0  0  0  0  0  0  0  0  0
   -2.9151    0.6881    1.2353 H   0  0  0  0  0  0  0  0  0  0  0  0
   -0.9729    1.2905   -0.2933 H   0  0  0  0  0  0  0  0  0  0  0  0
   -0.9379   -0.3902   -0.8163 H   0  0  0  0  0  0  0  0  0  0  0  0
   -0.6192    0.5012    2.1322 H   0  0  0  0  0  0  0  0  0  0  0  0
   -0.4324   -1.1399    1.5252 H   0  0  0  0  0  0  0  0  0  0  0  0
    1.7143   -0.2054    2.0003 H   0  0  0  0  0  0  0  0  0  0  0  0
    1.4947    1.1911    0.9027 H   0  0  0  0  0  0  0  0  0  0  0  0
    3.6557   -1.2273   -1.1237 H   0  0  0  0  0  0  0  0  0  0  0  0
    5.0624    0.2975    0.0931 H   0  0  0  0  0  0  0  0  0  0  0  0
    3.5464    0.8203    1.0960 H   0  0  0  0  0  0  0  0  0  0  0  0
  1  2  1  0
  2  3  1  0
  3  4  1  0
  4  5  1  0
  5  6  1  0
  6  7  2  0
  6  8  1  0
  8  9  2  0
  1 10  1  0
  1 11  1  0
  1 12  1  0
  2 13  1  0
  2 14  1  0
  3 15  1  0
  3 16  1  0
  4 17  1  0
  4 18  1  0
  5 19  1  0
  5 20  1  0
  8 21  1  0
  9 22  1  0
  9 23  1  0
M  END
>  <Ligand ID>  (1) 
LIG0000151

>  <Ligand>  (1) 
1-Octen-3-one

>  <SMILES>  (1) 
CCCCCC(=O)C=C

>  <CID>  (1) 
61346.0

>  <ChEMBL ID>  (1) 
nan

>  <InChiKey>  (1) 
KLTVSWGXIAYTHO-UHFFFAOYSA-N

>  <InChi>  (1) 
InChI=1S/C8H14O/c1-3-5-6-7-8(9)4-2/h4H,2-3,5-7H2,1H3

>  <IUPAC Name>  (1) 
oct-1-en-3-one

$$$$
