
     RDKit          3D

 93 97  0  0  0  0  0  0  0  0999 V2000
    3.9012    1.0472   -0.6268 O   0  0  0  0  0  0  0  0  0  0  0  0
    3.9505   -0.2287   -0.6858 C   0  0  0  0  0  0  0  0  0  0  0  0
    5.2549   -0.8307   -0.9601 C   0  0  2  0  0  0  0  0  0  0  0  0
    5.7827   -1.7548    0.0789 C   0  0  0  0  0  0  0  0  0  0  0  0
    6.9367   -1.0819    0.8219 C   0  0  2  0  0  0  0  0  0  0  0  0
    6.5649    0.3385    1.1887 C   0  0  0  0  0  0  0  0  0  0  0  0
    6.5871    1.1281   -0.1109 C   0  0  0  0  0  0  0  0  0  0  0  0
    6.3167    0.2002   -1.2784 C   0  0  1  0  0  0  0  0  0  0  0  0
    7.5616   -0.5620   -1.4638 N   0  0  0  0  0  0  0  0  0  0  0  0
    8.0917   -0.9644   -0.1741 C   0  0  0  0  0  0  0  0  0  0  0  0
    8.5096    0.1382   -2.2843 C   0  0  0  0  0  0  0  0  0  0  0  0
    2.7390   -0.9350   -0.4830 N   0  0  0  0  0  0  0  0  0  0  0  0
    1.4829   -0.2001   -0.2275 C   0  0  1  0  0  0  0  0  0  0  0  0
    0.4940   -0.5088   -1.2636 C   0  0  0  0  0  0  0  0  0  0  0  0
    0.8081   -1.4316   -2.0947 O   0  0  0  0  0  0  0  0  0  0  0  0
   -0.7626    0.0909   -1.4564 N   0  0  0  0  0  0  0  0  0  0  0  0
   -1.6129   -0.3845   -2.5346 C   0  0  0  0  0  0  0  0  0  0  0  0
   -2.9697   -0.7309   -2.0757 C   0  0  0  0  0  0  0  0  0  0  0  0
   -3.5642    0.0810   -0.9554 C   0  0  0  0  0  0  0  0  0  0  0  0
   -2.5759    0.7279   -0.0763 C   0  0  0  0  0  0  0  0  0  0  0  0
   -1.2961    1.1892   -0.6738 C   0  0  0  0  0  0  0  0  0  0  0  0
   -4.6572    0.9977   -1.4908 C   0  0  0  0  0  0  0  0  0  0  0  0
   -5.3451    1.8207   -0.4429 C   0  0  0  0  0  0  0  0  0  0  0  0
   -6.4877    2.6205   -1.0908 C   0  0  0  0  0  0  0  0  0  0  0  0
   -6.0209    3.5016   -2.1988 C   0  0  0  0  0  0  0  0  0  0  0  0
   -5.3541    2.5917   -3.2156 C   0  0  0  0  0  0  0  0  0  0  0  0
   -4.1369    1.9102   -2.5684 C   0  0  0  0  0  0  0  0  0  0  0  0
   -4.2972   -0.9146   -0.0831 C   0  0  0  0  0  0  0  0  0  0  0  0
   -4.6145   -2.0523   -0.5189 O   0  0  0  0  0  0  0  0  0  0  0  0
   -4.6508   -0.6091    1.2583 N   0  0  0  0  0  0  0  0  0  0  0  0
   -5.3593   -1.6230    2.0165 C   0  0  0  0  0  0  0  0  0  0  0  0
   -4.5366   -2.8667    2.1151 C   0  0  0  0  0  0  0  0  0  0  0  0
   -6.6511   -1.9572    1.2938 C   0  0  0  0  0  0  0  0  0  0  0  0
   -5.7350   -1.1403    3.3932 C   0  0  0  0  0  0  0  0  0  0  0  0
    0.9661   -0.6970    1.0937 C   0  0  0  0  0  0  0  0  0  0  0  0
    1.9677   -0.4106    2.1543 C   0  0  0  0  0  0  0  0  0  0  0  0
    2.9517   -1.2911    2.5357 C   0  0  0  0  0  0  0  0  0  0  0  0
    3.8088   -0.8949    3.5336 C   0  0  0  0  0  0  0  0  0  0  0  0
    3.7164    0.3434    4.1590 C   0  0  0  0  0  0  0  0  0  0  0  0
    2.7231    1.2287    3.7717 C   0  0  0  0  0  0  0  0  0  0  0  0
    1.8584    0.8379    2.7702 C   0  0  0  0  0  0  0  0  0  0  0  0
    4.5523    0.7393    5.1376 F   0  0  0  0  0  0  0  0  0  0  0  0
    5.1440   -1.4299   -1.9066 H   0  0  0  0  0  0  0  0  0  0  0  0
    6.2629   -2.6699   -0.3822 H   0  0  0  0  0  0  0  0  0  0  0  0
    5.0234   -2.1357    0.7529 H   0  0  0  0  0  0  0  0  0  0  0  0
    7.2388   -1.7004    1.6737 H   0  0  0  0  0  0  0  0  0  0  0  0
    5.5782    0.4337    1.6716 H   0  0  0  0  0  0  0  0  0  0  0  0
    7.3488    0.6877    1.8931 H   0  0  0  0  0  0  0  0  0  0  0  0
    5.9570    2.0218   -0.0980 H   0  0  0  0  0  0  0  0  0  0  0  0
    7.6461    1.4883   -0.2151 H   0  0  0  0  0  0  0  0  0  0  0  0
    6.1046    0.7941   -2.1686 H   0  0  0  0  0  0  0  0  0  0  0  0
    8.5392   -1.9642   -0.2577 H   0  0  0  0  0  0  0  0  0  0  0  0
    8.7769   -0.1974    0.2217 H   0  0  0  0  0  0  0  0  0  0  0  0
    9.3468    0.5357   -1.6778 H   0  0  0  0  0  0  0  0  0  0  0  0
    8.8744   -0.5919   -3.0609 H   0  0  0  0  0  0  0  0  0  0  0  0
    7.9909    0.9397   -2.8468 H   0  0  0  0  0  0  0  0  0  0  0  0
    2.7640   -1.9764   -0.5198 H   0  0  0  0  0  0  0  0  0  0  0  0
    1.7514    0.8611   -0.1687 H   0  0  0  0  0  0  0  0  0  0  0  0
   -1.1295   -1.3072   -2.9525 H   0  0  0  0  0  0  0  0  0  0  0  0
   -1.5294    0.3528   -3.3570 H   0  0  0  0  0  0  0  0  0  0  0  0
   -2.9336   -1.7960   -1.7441 H   0  0  0  0  0  0  0  0  0  0  0  0
   -3.6857   -0.7525   -2.9352 H   0  0  0  0  0  0  0  0  0  0  0  0
   -2.2865    0.0018    0.7432 H   0  0  0  0  0  0  0  0  0  0  0  0
   -3.0035    1.5881    0.4845 H   0  0  0  0  0  0  0  0  0  0  0  0
   -0.6084    1.5144    0.1012 H   0  0  0  0  0  0  0  0  0  0  0  0
   -1.4221    2.0314   -1.3950 H   0  0  0  0  0  0  0  0  0  0  0  0
   -5.4521    0.3893   -1.9739 H   0  0  0  0  0  0  0  0  0  0  0  0
   -4.7317    2.5631    0.0628 H   0  0  0  0  0  0  0  0  0  0  0  0
   -5.9316    1.1539    0.2722 H   0  0  0  0  0  0  0  0  0  0  0  0
   -7.2910    1.9598   -1.4298 H   0  0  0  0  0  0  0  0  0  0  0  0
   -6.8787    3.2715   -0.2685 H   0  0  0  0  0  0  0  0  0  0  0  0
   -5.3204    4.2721   -1.8662 H   0  0  0  0  0  0  0  0  0  0  0  0
   -6.8956    3.9229   -2.6928 H   0  0  0  0  0  0  0  0  0  0  0  0
   -6.0445    1.8013   -3.5288 H   0  0  0  0  0  0  0  0  0  0  0  0
   -4.9405    3.1812   -4.0600 H   0  0  0  0  0  0  0  0  0  0  0  0
   -3.5634    2.7496   -2.1394 H   0  0  0  0  0  0  0  0  0  0  0  0
   -3.6578    1.3913   -3.4117 H   0  0  0  0  0  0  0  0  0  0  0  0
   -4.4130    0.2903    1.7303 H   0  0  0  0  0  0  0  0  0  0  0  0
   -4.8447   -3.4266    3.0357 H   0  0  0  0  0  0  0  0  0  0  0  0
   -4.7130   -3.5480    1.2739 H   0  0  0  0  0  0  0  0  0  0  0  0
   -3.4510   -2.6637    2.1937 H   0  0  0  0  0  0  0  0  0  0  0  0
   -7.0159   -1.1185    0.6651 H   0  0  0  0  0  0  0  0  0  0  0  0
   -7.4644   -2.2019    2.0082 H   0  0  0  0  0  0  0  0  0  0  0  0
   -6.4973   -2.8876    0.6924 H   0  0  0  0  0  0  0  0  0  0  0  0
   -4.9137   -1.2069    4.1136 H   0  0  0  0  0  0  0  0  0  0  0  0
   -6.6209   -1.7679    3.7060 H   0  0  0  0  0  0  0  0  0  0  0  0
   -6.1526   -0.1088    3.2933 H   0  0  0  0  0  0  0  0  0  0  0  0
   -0.0295   -0.3546    1.3769 H   0  0  0  0  0  0  0  0  0  0  0  0
    0.8889   -1.8199    0.9677 H   0  0  0  0  0  0  0  0  0  0  0  0
    2.9992   -2.2399    2.0360 H   0  0  0  0  0  0  0  0  0  0  0  0
    4.5934   -1.5517    3.8640 H   0  0  0  0  0  0  0  0  0  0  0  0
    2.6161    2.2122    4.2382 H   0  0  0  0  0  0  0  0  0  0  0  0
    1.0789    1.5458    2.4738 H   0  0  0  0  0  0  0  0  0  0  0  0
  1  2  2  0
  2  3  1  0
  3  4  1  0
  4  5  1  0
  5  6  1  0
  6  7  1  0
  7  8  1  0
  8  9  1  0
  9 10  1  0
  9 11  1  0
  2 12  1  0
 12 13  1  0
 13 14  1  0
 14 15  2  0
 14 16  1  0
 16 17  1  0
 17 18  1  0
 18 19  1  0
 19 20  1  0
 20 21  1  0
 19 22  1  0
 22 23  1  0
 23 24  1  0
 24 25  1  0
 25 26  1  0
 26 27  1  0
 19 28  1  0
 28 29  2  0
 28 30  1  0
 30 31  1  0
 31 32  1  0
 31 33  1  0
 31 34  1  0
 13 35  1  0
 35 36  1  0
 36 37  2  0
 37 38  1  0
 38 39  2  0
 39 40  1  0
 40 41  2  0
 39 42  1  0
  8  3  1  0
 21 16  1  0
 27 22  1  0
 41 36  1  0
 10  5  1  0
  3 43  1  6
  4 44  1  0
  4 45  1  0
  5 46  1  1
  6 47  1  0
  6 48  1  0
  7 49  1  0
  7 50  1  0
  8 51  1  6
 10 52  1  0
 10 53  1  0
 11 54  1  0
 11 55  1  0
 11 56  1  0
 12 57  1  0
 13 58  1  1
 17 59  1  0
 17 60  1  0
 18 61  1  0
 18 62  1  0
 20 63  1  0
 20 64  1  0
 21 65  1  0
 21 66  1  0
 22 67  1  0
 23 68  1  0
 23 69  1  0
 24 70  1  0
 24 71  1  0
 25 72  1  0
 25 73  1  0
 26 74  1  0
 26 75  1  0
 27 76  1  0
 27 77  1  0
 30 78  1  0
 32 79  1  0
 32 80  1  0
 32 81  1  0
 33 82  1  0
 33 83  1  0
 33 84  1  0
 34 85  1  0
 34 86  1  0
 34 87  1  0
 35 88  1  0
 35 89  1  0
 37 90  1  0
 38 91  1  0
 40 92  1  0
 41 93  1  0
M  END
>  <Ligand ID>  (1) 
LIG0003387

>  <Ligand>  (1) 
RY764

>  <SMILES>  (1) 
O=C([C@@H]1C[C@@H]2CC[C@H]1N(C2)C)N[C@@H](C(=O)N1CCC(CC1)(C1CCCCC1)C(=O)NC(C)(C)C)Cc1ccc(cc1)F

>  <CID>  (1) 
6918851.0

>  <ChEMBL ID>  (1) 
nan

>  <InChiKey>  (1) 
ARFBDECCXOFCBN-HOLBEBDISA-N

>  <InChi>  (1) 
InChI=1S/C34H51FN4O3/c1-33(2,3)37-32(42)34(25-8-6-5-7-9-25)16-18-39(19-17-34)31(41)28(21-23-10-13-26(35)14-11-23)36-30(40)27-20-24-12-15-29(27)38(4)22-24/h10-11,13-14,24-25,27-29H,5-9,12,15-22H2,1-4H3,(H,36,40)(H,37,42)/t24-,27+,28+,29+/m0/s1

>  <IUPAC Name>  (1) 
(1R,4S,6R)-N-[(2R)-1-[4-(tert-butylcarbamoyl)-4-cyclohexylpiperidin-1-yl]-3-(4-fluorophenyl)-1-oxopropan-2-yl]-2-methyl-2-azabicyclo[2.2.2]octane-6-carboxamide

$$$$
