
     RDKit          3D

 22 22  0  0  0  0  0  0  0  0999 V2000
    4.1867    0.5901    0.7422 C   0  0  0  0  0  0  0  0  0  0  0  0
    3.3939   -0.3945    0.0788 O   0  0  0  0  0  0  0  0  0  0  0  0
    2.0157   -0.2466    0.0866 C   0  0  0  0  0  0  0  0  0  0  0  0
    1.4227    0.8205    0.7166 C   0  0  0  0  0  0  0  0  0  0  0  0
    0.0320    0.9210    0.6941 C   0  0  0  0  0  0  0  0  0  0  0  0
   -0.7602   -0.0107    0.0637 C   0  0  0  0  0  0  0  0  0  0  0  0
   -0.1531   -1.0712   -0.5612 C   0  0  0  0  0  0  0  0  0  0  0  0
    1.2365   -1.1753   -0.5410 C   0  0  0  0  0  0  0  0  0  0  0  0
   -2.2047    0.1696    0.0877 C   0  0  0  0  0  0  0  0  0  0  0  0
   -2.6363    1.2000    0.7046 O   0  0  0  0  0  0  0  0  0  0  0  0
   -3.0984   -0.6880   -0.5028 O   0  0  0  0  0  0  0  0  0  0  0  0
   -4.4960   -0.5326   -0.4915 C   0  0  0  0  0  0  0  0  0  0  0  0
    3.9038    1.5751    0.3307 H   0  0  0  0  0  0  0  0  0  0  0  0
    5.2417    0.3557    0.4885 H   0  0  0  0  0  0  0  0  0  0  0  0
    4.0341    0.5282    1.8455 H   0  0  0  0  0  0  0  0  0  0  0  0
    2.0491    1.5382    1.2031 H   0  0  0  0  0  0  0  0  0  0  0  0
   -0.3664    1.7927    1.2140 H   0  0  0  0  0  0  0  0  0  0  0  0
   -0.7390   -1.8218   -1.0659 H   0  0  0  0  0  0  0  0  0  0  0  0
    1.6593   -2.0448   -1.0581 H   0  0  0  0  0  0  0  0  0  0  0  0
   -4.9809   -0.7280   -1.4687 H   0  0  0  0  0  0  0  0  0  0  0  0
   -4.9009   -1.2521    0.2688 H   0  0  0  0  0  0  0  0  0  0  0  0
   -4.8396    0.4745   -0.1902 H   0  0  0  0  0  0  0  0  0  0  0  0
  1  2  1  0
  2  3  1  0
  3  4  2  0
  4  5  1  0
  5  6  2  0
  6  7  1  0
  7  8  2  0
  6  9  1  0
  9 10  2  0
  9 11  1  0
 11 12  1  0
  8  3  1  0
  1 13  1  0
  1 14  1  0
  1 15  1  0
  4 16  1  0
  5 17  1  0
  7 18  1  0
  8 19  1  0
 12 20  1  0
 12 21  1  0
 12 22  1  0
M  END
>  <Ligand ID>  (1) 
LIG0000383

>  <Ligand>  (1) 
Methyl anisate

>  <SMILES>  (1) 
COc1ccc(cc1)C(=O)OC

>  <CID>  (1) 
8499.0

>  <ChEMBL ID>  (1) 
nan

>  <InChiKey>  (1) 
DDIZAANNODHTRB-UHFFFAOYSA-N

>  <InChi>  (1) 
InChI=1S/C9H10O3/c1-11-8-5-3-7(4-6-8)9(10)12-2/h3-6H,1-2H3

>  <IUPAC Name>  (1) 
methyl 4-methoxybenzoate

$$$$
