
     RDKit          3D

126131  0  0  0  0  0  0  0  0999 V2000
    1.1734   -7.6654    0.4422 O   0  0  0  0  0  0  0  0  0  0  0  0
    0.9688   -6.4780    0.2098 C   0  0  0  0  0  0  0  0  0  0  0  0
    2.0393   -5.4058    0.2297 C   0  0  0  0  0  0  0  0  0  0  0  0
    3.0740   -5.9240   -0.7102 C   0  0  0  0  0  0  0  0  0  0  0  0
    4.2696   -5.1112   -0.9640 C   0  0  0  0  0  0  0  0  0  0  0  0
    4.0658   -3.6525   -0.8370 C   0  0  0  0  0  0  0  0  0  0  0  0
    3.6373   -3.2105    0.2348 O   0  0  0  0  0  0  0  0  0  0  0  0
    4.3022   -2.6999   -1.8600 N   0  0  0  0  0  0  0  0  0  0  0  0
    4.3493   -1.2816   -1.7170 C   0  0  1  0  0  0  0  0  0  0  0  0
    4.5073   -0.6313   -3.0299 C   0  0  0  0  0  0  0  0  0  0  0  0
    5.7872   -1.0972   -3.6717 C   0  0  0  0  0  0  0  0  0  0  0  0
    6.2371   -0.6862   -4.9206 C   0  0  0  0  0  0  0  0  0  0  0  0
    7.4206   -1.3196   -5.1670 N   0  0  0  0  0  0  0  0  0  0  0  0
    7.6978   -2.0930   -4.1159 C   0  0  0  0  0  0  0  0  0  0  0  0
    6.6989   -1.9554   -3.2043 N   0  0  0  0  0  0  0  0  0  0  0  0
    3.2504   -0.6462   -0.9177 C   0  0  0  0  0  0  0  0  0  0  0  0
    2.2674   -1.1885   -0.4510 O   0  0  0  0  0  0  0  0  0  0  0  0
    3.3915    0.7481   -0.6866 N   0  0  0  0  0  0  0  0  0  0  0  0
    2.6447    1.6302    0.1407 C   0  0  2  0  0  0  0  0  0  0  0  0
    3.1885    1.5711    1.5631 C   0  0  0  0  0  0  0  0  0  0  0  0
    2.5821    2.4254    2.5623 C   0  0  0  0  0  0  0  0  0  0  0  0
    1.6108    2.0697    3.4676 C   0  0  0  0  0  0  0  0  0  0  0  0
    1.1442    2.9868    4.3859 C   0  0  0  0  0  0  0  0  0  0  0  0
    1.6024    4.2864    4.4587 C   0  0  0  0  0  0  0  0  0  0  0  0
    2.5747    4.6506    3.5537 C   0  0  0  0  0  0  0  0  0  0  0  0
    3.0479    3.7470    2.6355 C   0  0  0  0  0  0  0  0  0  0  0  0
    3.0531    5.9511    3.6063 C   0  0  0  0  0  0  0  0  0  0  0  0
    2.5853    6.8709    4.5281 C   0  0  0  0  0  0  0  0  0  0  0  0
    1.6180    6.4460    5.4007 C   0  0  0  0  0  0  0  0  0  0  0  0
    1.0975    5.1641    5.4027 C   0  0  0  0  0  0  0  0  0  0  0  0
    1.2474    1.8604    0.0821 C   0  0  0  0  0  0  0  0  0  0  0  0
    0.7546    2.7130    0.9161 O   0  0  0  0  0  0  0  0  0  0  0  0
    0.2026    1.3168   -0.7509 N   0  0  0  0  0  0  0  0  0  0  0  0
   -1.1186    1.8734   -0.7086 C   0  0  2  0  0  0  0  0  0  0  0  0
   -2.1887    1.2368    0.0322 C   0  0  0  0  0  0  0  0  0  0  0  0
   -3.3049    1.8897    0.0278 O   0  0  0  0  0  0  0  0  0  0  0  0
   -2.2789    0.0374    0.7675 N   0  0  0  0  0  0  0  0  0  0  0  0
   -3.4689   -0.3447    1.4679 C   0  0  1  0  0  0  0  0  0  0  0  0
   -4.1766   -1.5373    1.0454 C   0  0  0  0  0  0  0  0  0  0  0  0
   -5.1534   -1.9004    1.7836 O   0  0  0  0  0  0  0  0  0  0  0  0
   -3.9676   -2.3811   -0.0705 N   0  0  0  0  0  0  0  0  0  0  0  0
   -4.8673   -3.5091   -0.2570 C   0  0  2  0  0  0  0  0  0  0  0  0
   -4.3162   -4.7179   -0.8612 C   0  0  0  0  0  0  0  0  0  0  0  0
   -3.1563   -5.2846   -0.0352 C   0  0  0  0  0  0  0  0  0  0  0  0
   -2.6497   -6.5112   -0.7197 C   0  0  0  0  0  0  0  0  0  0  0  0
   -1.4447   -7.1556   -0.1412 C   0  0  0  0  0  0  0  0  0  0  0  0
   -0.3940   -6.1415   -0.1145 N   0  0  0  0  0  0  0  0  0  0  0  0
   -6.0589   -3.0288   -1.0841 C   0  0  0  0  0  0  0  0  0  0  0  0
   -6.9656   -3.8528   -1.3684 O   0  0  0  0  0  0  0  0  0  0  0  0
   -6.1389   -1.6806   -1.5212 N   0  0  0  0  0  0  0  0  0  0  0  0
   -3.3867   -0.2539    2.9852 C   0  0  0  0  0  0  0  0  0  0  0  0
   -3.1429    1.1496    3.4017 C   0  0  0  0  0  0  0  0  0  0  0  0
   -1.9885    1.7435    3.8487 C   0  0  0  0  0  0  0  0  0  0  0  0
   -2.2780    3.0314    4.0913 N   0  0  0  0  0  0  0  0  0  0  0  0
   -3.5637    3.2766    3.8180 C   0  0  0  0  0  0  0  0  0  0  0  0
   -4.1452    2.1145    3.3802 C   0  0  0  0  0  0  0  0  0  0  0  0
   -5.4737    2.1533    3.0477 C   0  0  0  0  0  0  0  0  0  0  0  0
   -6.2467    3.3025    3.1331 C   0  0  0  0  0  0  0  0  0  0  0  0
   -5.6508    4.4688    3.5753 C   0  0  0  0  0  0  0  0  0  0  0  0
   -4.3145    4.4339    3.9109 C   0  0  0  0  0  0  0  0  0  0  0  0
   -1.6593    2.1733   -2.0928 C   0  0  0  0  0  0  0  0  0  0  0  0
   -0.9037    3.1449   -2.9229 C   0  0  0  0  0  0  0  0  0  0  0  0
    0.4799    2.8012   -3.3301 C   0  0  0  0  0  0  0  0  0  0  0  0
    0.9698    3.9315   -4.1336 N   0  0  0  0  0  0  0  0  0  0  0  0
    0.4790    4.0903   -5.2957 C   0  0  0  0  0  0  0  0  0  0  0  0
    0.9654    5.1952   -6.0661 N   0  0  0  0  0  0  0  0  0  0  0  0
   -0.5030    3.2759   -5.9031 N   0  0  0  0  0  0  0  0  0  0  0  0
    2.4018   -5.2834    1.2685 H   0  0  0  0  0  0  0  0  0  0  0  0
    1.5560   -4.4732   -0.0558 H   0  0  0  0  0  0  0  0  0  0  0  0
    3.3783   -6.9371   -0.3491 H   0  0  0  0  0  0  0  0  0  0  0  0
    2.5707   -6.0930   -1.7133 H   0  0  0  0  0  0  0  0  0  0  0  0
    4.7470   -5.3799   -1.9348 H   0  0  0  0  0  0  0  0  0  0  0  0
    5.0442   -5.3690   -0.1774 H   0  0  0  0  0  0  0  0  0  0  0  0
    4.4398   -3.1165   -2.7944 H   0  0  0  0  0  0  0  0  0  0  0  0
    5.2452   -1.0025   -1.0488 H   0  0  0  0  0  0  0  0  0  0  0  0
    4.4168    0.4581   -3.0711 H   0  0  0  0  0  0  0  0  0  0  0  0
    3.7089   -1.0268   -3.7240 H   0  0  0  0  0  0  0  0  0  0  0  0
    5.7177    0.0133   -5.5591 H   0  0  0  0  0  0  0  0  0  0  0  0
    8.5775   -2.7401   -3.9884 H   0  0  0  0  0  0  0  0  0  0  0  0
    6.6717   -2.4519   -2.2875 H   0  0  0  0  0  0  0  0  0  0  0  0
    4.1914    1.1677   -1.2344 H   0  0  0  0  0  0  0  0  0  0  0  0
    3.1280    2.6908   -0.1812 H   0  0  0  0  0  0  0  0  0  0  0  0
    3.1283    0.4907    1.8385 H   0  0  0  0  0  0  0  0  0  0  0  0
    4.2984    1.7684    1.4779 H   0  0  0  0  0  0  0  0  0  0  0  0
    1.2513    1.0499    3.4130 H   0  0  0  0  0  0  0  0  0  0  0  0
    0.3903    2.7087    5.1093 H   0  0  0  0  0  0  0  0  0  0  0  0
    3.8130    4.0943    1.9499 H   0  0  0  0  0  0  0  0  0  0  0  0
    3.8115    6.2133    2.8894 H   0  0  0  0  0  0  0  0  0  0  0  0
    2.9993    7.8812    4.5233 H   0  0  0  0  0  0  0  0  0  0  0  0
    1.2410    7.1454    6.1242 H   0  0  0  0  0  0  0  0  0  0  0  0
    0.3388    4.8328    6.0896 H   0  0  0  0  0  0  0  0  0  0  0  0
    0.4771    0.5468   -1.3419 H   0  0  0  0  0  0  0  0  0  0  0  0
   -1.0590    2.9279   -0.2355 H   0  0  0  0  0  0  0  0  0  0  0  0
   -1.4423   -0.5488    0.7720 H   0  0  0  0  0  0  0  0  0  0  0  0
   -4.2512    0.5036    1.2617 H   0  0  0  0  0  0  0  0  0  0  0  0
   -3.1869   -2.1341   -0.6761 H   0  0  0  0  0  0  0  0  0  0  0  0
   -5.3253   -3.7301    0.7317 H   0  0  0  0  0  0  0  0  0  0  0  0
   -3.9849   -4.6196   -1.9176 H   0  0  0  0  0  0  0  0  0  0  0  0
   -5.1220   -5.4922   -0.8958 H   0  0  0  0  0  0  0  0  0  0  0  0
   -3.5228   -5.4628    0.9955 H   0  0  0  0  0  0  0  0  0  0  0  0
   -2.4149   -4.4782    0.0096 H   0  0  0  0  0  0  0  0  0  0  0  0
   -2.4909   -6.2115   -1.8031 H   0  0  0  0  0  0  0  0  0  0  0  0
   -3.4658   -7.2913   -0.8113 H   0  0  0  0  0  0  0  0  0  0  0  0
   -1.6552   -7.5122    0.8992 H   0  0  0  0  0  0  0  0  0  0  0  0
   -1.1139   -8.0297   -0.7277 H   0  0  0  0  0  0  0  0  0  0  0  0
   -0.5398   -5.1517   -0.3184 H   0  0  0  0  0  0  0  0  0  0  0  0
   -5.4123   -1.2626   -2.1396 H   0  0  0  0  0  0  0  0  0  0  0  0
   -6.9390   -1.0407   -1.2394 H   0  0  0  0  0  0  0  0  0  0  0  0
   -2.6894   -0.9718    3.4141 H   0  0  0  0  0  0  0  0  0  0  0  0
   -4.3939   -0.5330    3.3540 H   0  0  0  0  0  0  0  0  0  0  0  0
   -1.0663    1.1951    3.9578 H   0  0  0  0  0  0  0  0  0  0  0  0
   -1.6301    3.7672    4.4407 H   0  0  0  0  0  0  0  0  0  0  0  0
   -5.9794    1.2701    2.7020 H   0  0  0  0  0  0  0  0  0  0  0  0
   -7.2979    3.2875    2.8585 H   0  0  0  0  0  0  0  0  0  0  0  0
   -6.2676    5.3545    3.6346 H   0  0  0  0  0  0  0  0  0  0  0  0
   -3.8489    5.3677    4.2625 H   0  0  0  0  0  0  0  0  0  0  0  0
   -1.7483    1.2309   -2.6953 H   0  0  0  0  0  0  0  0  0  0  0  0
   -2.7115    2.5426   -2.0293 H   0  0  0  0  0  0  0  0  0  0  0  0
   -0.8002    4.0975   -2.2921 H   0  0  0  0  0  0  0  0  0  0  0  0
   -1.5226    3.5226   -3.7867 H   0  0  0  0  0  0  0  0  0  0  0  0
    1.2210    2.6868   -2.5348 H   0  0  0  0  0  0  0  0  0  0  0  0
    0.5449    1.8740   -3.9468 H   0  0  0  0  0  0  0  0  0  0  0  0
    0.6656    6.1771   -5.8451 H   0  0  0  0  0  0  0  0  0  0  0  0
    1.6177    5.0395   -6.8491 H   0  0  0  0  0  0  0  0  0  0  0  0
   -1.3455    3.7878   -6.2984 H   0  0  0  0  0  0  0  0  0  0  0  0
   -0.4456    2.2346   -5.9806 H   0  0  0  0  0  0  0  0  0  0  0  0
  1  2  2  0
  2  3  1  0
  3  4  1  0
  4  5  1  0
  5  6  1  0
  6  7  2  0
  6  8  1  0
  8  9  1  0
  9 10  1  0
 10 11  1  0
 11 12  2  0
 12 13  1  0
 13 14  2  0
 14 15  1  0
  9 16  1  0
 16 17  2  0
 16 18  1  0
 18 19  1  0
 19 20  1  0
 20 21  1  0
 21 22  2  0
 22 23  1  0
 23 24  2  0
 24 25  1  0
 25 26  2  0
 25 27  1  0
 27 28  2  0
 28 29  1  0
 29 30  2  0
 19 31  1  0
 31 32  2  0
 31 33  1  0
 33 34  1  0
 34 35  1  0
 35 36  2  0
 35 37  1  0
 37 38  1  0
 38 39  1  0
 39 40  2  0
 39 41  1  0
 41 42  1  0
 42 43  1  0
 43 44  1  0
 44 45  1  0
 45 46  1  0
 46 47  1  0
 42 48  1  0
 48 49  2  0
 48 50  1  0
 38 51  1  0
 51 52  1  0
 52 53  2  0
 53 54  1  0
 54 55  1  0
 55 56  2  0
 56 57  1  0
 57 58  2  0
 58 59  1  0
 59 60  2  0
 34 61  1  0
 61 62  1  0
 62 63  1  0
 63 64  1  0
 64 65  2  3
 65 66  1  0
 65 67  1  0
 47  2  1  0
 56 52  1  0
 15 11  1  0
 26 21  1  0
 60 55  1  0
 30 24  1  0
  3 68  1  0
  3 69  1  0
  4 70  1  0
  4 71  1  0
  5 72  1  0
  5 73  1  0
  8 74  1  0
  9 75  1  1
 10 76  1  0
 10 77  1  0
 12 78  1  0
 14 79  1  0
 15 80  1  0
 18 81  1  0
 19 82  1  6
 20 83  1  0
 20 84  1  0
 22 85  1  0
 23 86  1  0
 26 87  1  0
 27 88  1  0
 28 89  1  0
 29 90  1  0
 30 91  1  0
 33 92  1  0
 34 93  1  1
 37 94  1  0
 38 95  1  6
 41 96  1  0
 42 97  1  1
 43 98  1  0
 43 99  1  0
 44100  1  0
 44101  1  0
 45102  1  0
 45103  1  0
 46104  1  0
 46105  1  0
 47106  1  0
 50107  1  0
 50108  1  0
 51109  1  0
 51110  1  0
 53111  1  0
 54112  1  0
 57113  1  0
 58114  1  0
 59115  1  0
 60116  1  0
 61117  1  0
 61118  1  0
 62119  1  0
 62120  1  0
 63121  1  0
 63122  1  0
 66123  1  0
 66124  1  0
 67125  1  0
 67126  1  0
M  END
>  <Ligand ID>  (1) 
LIG0003114

>  <Ligand>  (1) 
CHEMBL313279

>  <SMILES>  (1) 
O=C1CCCC(=O)N[C@@H](Cc2cnc[nH]2)C(=O)N[C@H](Cc2ccc3c(c2)cccc3)C(=O)N[C@H](C(=O)N[C@@H](C(=O)N[C@H](CCCCN1)C(=O)N)Cc1c[nH]c2c1cccc2)CCCN=C(N)N

>  <CID>  (1) 
44322868.0

>  <ChEMBL ID>  (1) 
nan

>  <InChiKey>  (1) 
JKPIUTPQBDXSRH-KYFHLAJPSA-N

>  <InChi>  (1) 
InChI=1S/C47H59N13O7/c48-42(63)35-13-5-6-19-52-40(61)15-7-16-41(62)56-39(24-32-26-51-27-55-32)46(67)59-37(22-28-17-18-29-9-1-2-10-30(29)21-28)44(65)58-36(14-8-20-53-47(49)50)43(64)60-38(45(66)57-35)23-31-25-54-34-12-4-3-11-33(31)34/h1-4,9-12,17-18,21,25-27,35-39,54H,5-8,13-16,19-20,22-24H2,(H2,48,63)(H,51,55)(H,52,61)(H,56,62)(H,57,66)(H,58,65)(H,59,67)(H,60,64)(H4,49,50,53)/t35-,36+,37-,38-,39+/m1/s1

>  <IUPAC Name>  (1) 
(2S,5R,8S,11R,14R)-8-[3-(diaminomethylideneamino)propyl]-2-(1H-imidazol-5-ylmethyl)-11-(1H-indol-3-ylmethyl)-5-(naphthalen-2-ylmethyl)-3,6,9,12,20,24-hexaoxo-1,4,7,10,13,19-hexazacyclotetracosane-14-carboxamide

$$$$
