
     RDKit          3D

 37 38  0  0  0  0  0  0  0  0999 V2000
    5.0678    0.7917   -0.7305 C   0  0  0  0  0  0  0  0  0  0  0  0
    3.8061    0.4182    0.0343 C   0  0  0  0  0  0  0  0  0  0  0  0
    2.8937   -0.3021   -0.9368 C   0  0  0  0  0  0  0  0  0  0  0  0
    1.6163   -0.7249   -0.3134 C   0  0  0  0  0  0  0  0  0  0  0  0
    0.5470    0.1428   -0.3480 C   0  0  0  0  0  0  0  0  0  0  0  0
   -0.6873   -0.1667    0.2093 C   0  0  0  0  0  0  0  0  0  0  0  0
   -1.8115    0.7486    0.1777 C   0  0  1  0  0  0  0  0  0  0  0  0
   -2.0249    1.5640   -1.0438 C   0  0  0  0  0  0  0  0  0  0  0  0
   -3.4371    1.9695   -0.9592 N   0  0  0  0  0  0  0  0  0  0  0  0
   -4.0160    1.2057    0.1593 C   0  0  0  0  0  0  0  0  0  0  0  0
   -3.1537    0.0007    0.1378 C   0  0  2  0  0  0  0  0  0  0  0  0
   -3.1464   -0.8185    1.3216 N   0  0  0  0  0  0  0  0  0  0  0  0
   -2.0802   -1.7895    1.4111 C   0  0  0  0  0  0  0  0  0  0  0  0
   -2.2535   -2.9046    1.9778 O   0  0  0  0  0  0  0  0  0  0  0  0
   -0.7787   -1.4218    0.8116 C   0  0  0  0  0  0  0  0  0  0  0  0
    0.2849   -2.2984    0.8523 C   0  0  0  0  0  0  0  0  0  0  0  0
    1.4912   -1.9674    0.2948 C   0  0  0  0  0  0  0  0  0  0  0  0
    0.1053   -3.8657    1.6268 Cl  0  0  0  0  0  0  0  0  0  0  0  0
    0.6878    0.0000    0.0000 Cl  0  0  0  0  0  0  0  0  0  0  0  0
    4.8392    1.0252   -1.7917 H   0  0  0  0  0  0  0  0  0  0  0  0
    5.5534    1.7040   -0.3104 H   0  0  0  0  0  0  0  0  0  0  0  0
    5.8183   -0.0234   -0.7493 H   0  0  0  0  0  0  0  0  0  0  0  0
    3.3418    1.3462    0.3962 H   0  0  0  0  0  0  0  0  0  0  0  0
    4.0286   -0.2421    0.8907 H   0  0  0  0  0  0  0  0  0  0  0  0
    2.6668    0.3452   -1.8079 H   0  0  0  0  0  0  0  0  0  0  0  0
    3.4051   -1.2191   -1.2993 H   0  0  0  0  0  0  0  0  0  0  0  0
    0.6638    1.1116   -0.8287 H   0  0  0  0  0  0  0  0  0  0  0  0
   -1.8563    1.4397    1.0494 H   0  0  0  0  0  0  0  0  0  0  0  0
   -1.8734    0.9895   -1.9926 H   0  0  0  0  0  0  0  0  0  0  0  0
   -1.4214    2.4767   -1.1304 H   0  0  0  0  0  0  0  0  0  0  0  0
   -3.9489    1.6189   -1.7998 H   0  0  0  0  0  0  0  0  0  0  0  0
   -5.0802    1.0289    0.0176 H   0  0  0  0  0  0  0  0  0  0  0  0
   -3.7739    1.7823    1.0890 H   0  0  0  0  0  0  0  0  0  0  0  0
   -3.2862   -0.5370   -0.7987 H   0  0  0  0  0  0  0  0  0  0  0  0
   -3.8241   -0.7734    2.0959 H   0  0  0  0  0  0  0  0  0  0  0  0
    2.3245   -2.6547    0.3269 H   0  0  0  0  0  0  0  0  0  0  0  0
   -0.6878    0.0000    0.0000 H   0  0  0  0  0  0  0  0  0  0  0  0
  1  2  1  0
  2  3  1  0
  3  4  1  0
  4  5  2  0
  5  6  1  0
  6  7  1  0
  7  8  1  0
  8  9  1  0
  9 10  1  0
 10 11  1  0
 11 12  1  0
 12 13  1  0
 13 14  2  0
 13 15  1  0
 15 16  1  0
 16 17  2  0
 16 18  1  0
 17  4  1  0
 15  6  2  0
 11  7  1  0
  1 20  1  0
  1 21  1  0
  1 22  1  0
  2 23  1  0
  2 24  1  0
  3 25  1  0
  3 26  1  0
  5 27  1  0
  7 28  1  1
  8 29  1  0
  8 30  1  0
  9 31  1  0
 10 32  1  0
 10 33  1  0
 11 34  1  6
 12 35  1  0
 17 36  1  0
 19 37  1  0
M  END
>  <Ligand ID>  (1) 
LIG0004176

>  <Ligand>  (1) 
CHEMBL2337498

>  <SMILES>  (1) 
CCCc1cc2[C@H]3CNC[C@@H]3NC(=O)c2c(c1)Cl.Cl

>  <CID>  (1) 
11673841.0

>  <ChEMBL ID>  (1) 
nan

>  <InChiKey>  (1) 
KDQDLBUUQXAIEY-IYJPBCIQSA-N

>  <InChi>  (1) 
InChI=1S/C14H17ClN2O.ClH/c1-2-3-8-4-9-10-6-16-7-12(10)17-14(18)13(9)11(15)5-8;/h4-5,10,12,16H,2-3,6-7H2,1H3,(H,17,18);1H/t10-,12+;/m1./s1

>  <IUPAC Name>  (1) 
(3aR,9bS)-6-chloro-8-propyl-1,2,3,3a,4,9b-hexahydropyrrolo[3,4-c]isoquinolin-5-one;hydrochloride

$$$$
