
     RDKit          3D

 65 71  0  0  0  0  0  0  0  0999 V2000
    4.9103    3.4950   -0.5351 C   0  0  0  0  0  0  0  0  0  0  0  0
    3.9056    2.7714    0.1384 O   0  0  0  0  0  0  0  0  0  0  0  0
    3.2135    1.7171   -0.4710 C   0  0  0  0  0  0  0  0  0  0  0  0
    3.5298    1.3859   -1.7626 C   0  0  0  0  0  0  0  0  0  0  0  0
    2.8225    0.3367   -2.3308 C   0  0  0  0  0  0  0  0  0  0  0  0
    1.8446   -0.3482   -1.6379 C   0  0  0  0  0  0  0  0  0  0  0  0
    1.5506    0.0184   -0.3241 C   0  0  0  0  0  0  0  0  0  0  0  0
    2.2481    1.0683    0.2656 C   0  0  0  0  0  0  0  0  0  0  0  0
    1.9754    1.4477    1.5603 O   0  0  0  0  0  0  0  0  0  0  0  0
    0.5134   -0.7273    0.3738 C   0  0  2  0  0  0  0  0  0  0  0  0
    1.1297   -1.8960    1.1030 C   0  0  0  0  0  0  0  0  0  0  0  0
    1.5908   -3.0024    0.2142 C   0  0  0  0  0  0  0  0  0  0  0  0
    0.6217   -3.3074   -0.7965 N   0  0  0  0  0  0  0  0  0  0  0  0
    0.1461   -2.1671   -1.5244 C   0  0  0  0  0  0  0  0  0  0  0  0
    1.1550   -1.4470   -2.3382 C   0  0  0  0  0  0  0  0  0  0  0  0
   -0.5483   -1.2518   -0.5722 C   0  0  2  0  0  0  0  0  0  0  0  0
   -1.2773   -0.1919   -1.3110 C   0  0  0  0  0  0  0  0  0  0  0  0
   -1.5704    1.0033   -0.5042 C   0  0  0  0  0  0  0  0  0  0  0  0
   -1.1152    1.1084    0.7941 C   0  0  0  0  0  0  0  0  0  0  0  0
   -0.3332    0.0017    1.3500 C   0  0  1  0  0  0  0  0  0  0  0  0
   -1.3215   -1.1064    1.6486 C   0  0  0  0  0  0  0  0  0  0  0  0
   -1.9605   -1.3339    2.7921 C   0  0  0  0  0  0  0  0  0  0  0  0
   -2.9124   -2.4941    2.8990 C   0  0  0  0  0  0  0  0  0  0  0  0
   -1.7079   -0.4236    3.9349 C   0  0  0  0  0  0  0  0  0  0  0  0
   -1.4620   -1.9332    0.3900 C   0  0  0  0  0  0  0  0  0  0  0  0
   -1.5379    2.3099    1.2782 N   0  0  0  0  0  0  0  0  0  0  0  0
   -2.2400    2.9400    0.3062 C   0  0  0  0  0  0  0  0  0  0  0  0
   -2.2722    2.1355   -0.8223 C   0  0  0  0  0  0  0  0  0  0  0  0
   -2.9341    2.5640   -1.9541 C   0  0  0  0  0  0  0  0  0  0  0  0
   -3.5832    3.7711   -2.0403 C   0  0  0  0  0  0  0  0  0  0  0  0
   -3.5506    4.5784   -0.9071 C   0  0  0  0  0  0  0  0  0  0  0  0
   -2.8921    4.1623    0.2320 C   0  0  0  0  0  0  0  0  0  0  0  0
    1.0179   -4.3826   -1.6491 C   0  0  0  0  0  0  0  0  0  0  0  0
    5.7441    2.8051   -0.7071 H   0  0  0  0  0  0  0  0  0  0  0  0
    5.2144    4.3359    0.1131 H   0  0  0  0  0  0  0  0  0  0  0  0
    4.4698    3.8812   -1.4771 H   0  0  0  0  0  0  0  0  0  0  0  0
    4.2988    1.9346   -2.2878 H   0  0  0  0  0  0  0  0  0  0  0  0
    3.0783    0.0807   -3.3523 H   0  0  0  0  0  0  0  0  0  0  0  0
    2.6635    1.3950    2.3015 H   0  0  0  0  0  0  0  0  0  0  0  0
    0.4190   -2.2460    1.8590 H   0  0  0  0  0  0  0  0  0  0  0  0
    2.0283   -1.5056    1.6457 H   0  0  0  0  0  0  0  0  0  0  0  0
    2.6124   -2.8560   -0.1629 H   0  0  0  0  0  0  0  0  0  0  0  0
    1.6527   -3.9179    0.8741 H   0  0  0  0  0  0  0  0  0  0  0  0
   -0.6385   -2.5543   -2.2270 H   0  0  0  0  0  0  0  0  0  0  0  0
    1.8891   -2.2017   -2.7027 H   0  0  0  0  0  0  0  0  0  0  0  0
    0.6620   -1.0001   -3.2404 H   0  0  0  0  0  0  0  0  0  0  0  0
   -2.2671   -0.6360   -1.6098 H   0  0  0  0  0  0  0  0  0  0  0  0
   -0.7986    0.0728   -2.2874 H   0  0  0  0  0  0  0  0  0  0  0  0
    0.1343    0.2256    2.3223 H   0  0  0  0  0  0  0  0  0  0  0  0
   -3.6472   -2.4638    2.0909 H   0  0  0  0  0  0  0  0  0  0  0  0
   -3.4355   -2.3965    3.8592 H   0  0  0  0  0  0  0  0  0  0  0  0
   -2.3293   -3.4389    2.9146 H   0  0  0  0  0  0  0  0  0  0  0  0
   -0.6741   -0.5428    4.3294 H   0  0  0  0  0  0  0  0  0  0  0  0
   -1.8956    0.6185    3.6349 H   0  0  0  0  0  0  0  0  0  0  0  0
   -2.4347   -0.6626    4.7466 H   0  0  0  0  0  0  0  0  0  0  0  0
   -2.5054   -1.8697    0.0301 H   0  0  0  0  0  0  0  0  0  0  0  0
   -1.0886   -2.9586    0.5465 H   0  0  0  0  0  0  0  0  0  0  0  0
   -1.3469    2.6744    2.2396 H   0  0  0  0  0  0  0  0  0  0  0  0
   -2.9526    1.9304   -2.8255 H   0  0  0  0  0  0  0  0  0  0  0  0
   -4.1018    4.1202   -2.9095 H   0  0  0  0  0  0  0  0  0  0  0  0
   -4.0614    5.5501   -0.9467 H   0  0  0  0  0  0  0  0  0  0  0  0
   -2.8960    4.8302    1.0908 H   0  0  0  0  0  0  0  0  0  0  0  0
    0.2291   -4.4924   -2.4385 H   0  0  0  0  0  0  0  0  0  0  0  0
    1.0491   -5.3138   -1.0563 H   0  0  0  0  0  0  0  0  0  0  0  0
    1.9721   -4.2000   -2.1671 H   0  0  0  0  0  0  0  0  0  0  0  0
  1  2  1  0
  2  3  1  0
  3  4  2  0
  4  5  1  0
  5  6  2  0
  6  7  1  0
  7  8  2  0
  8  9  1  0
  7 10  1  0
 10 11  1  1
 11 12  1  0
 12 13  1  0
 13 14  1  0
 14 15  1  0
 14 16  1  0
 16 17  1  6
 17 18  1  0
 18 19  2  0
 19 20  1  0
 20 21  1  0
 21 22  2  3
 22 23  1  0
 22 24  1  0
 21 25  1  0
 19 26  1  0
 26 27  1  0
 27 28  2  0
 28 29  1  0
 29 30  2  0
 30 31  1  0
 31 32  2  0
 13 33  1  0
  8  3  1  0
 20 10  1  0
 32 27  1  0
 15  6  1  0
 25 16  1  0
 16 10  1  0
 28 18  1  0
  1 34  1  0
  1 35  1  0
  1 36  1  0
  4 37  1  0
  5 38  1  0
  9 39  1  0
 11 40  1  0
 11 41  1  0
 12 42  1  0
 12 43  1  0
 14 44  1  0
 15 45  1  0
 15 46  1  0
 17 47  1  0
 17 48  1  0
 20 49  1  1
 23 50  1  0
 23 51  1  0
 23 52  1  0
 24 53  1  0
 24 54  1  0
 24 55  1  0
 25 56  1  0
 25 57  1  0
 26 58  1  0
 29 59  1  0
 30 60  1  0
 31 61  1  0
 32 62  1  0
 33 63  1  0
 33 64  1  0
 33 65  1  0
M  END
>  <Ligand ID>  (1) 
LIG0003258

>  <Ligand>  (1) 
CHEMBL107207

>  <SMILES>  (1) 
COc1ccc2c(c1O)[C@@]13CCN(C(C2)[C@@]23Cc3c([C@H]1C(=C(C)C)C2)[nH]c1c3cccc1)C

>  <CID>  (1) 
44337645.0

>  <ChEMBL ID>  (1) 
nan

>  <InChiKey>  (1) 
MKHNANMCTRPLDO-BXQCVQRUSA-N

>  <InChi>  (1) 
InChI=1S/C29H32N2O2/c1-16(2)19-14-28-15-20-18-7-5-6-8-21(18)30-26(20)25(19)29(28)11-12-31(3)23(28)13-17-9-10-22(33-4)27(32)24(17)29/h5-10,23,25,30,32H,11-15H2,1-4H3/t23?,25-,28+,29+/m1/s1

>  <IUPAC Name>  (1) 
(1S,2S,13R)-19-methoxy-24-methyl-26-propan-2-ylidene-4,24-diazaheptacyclo[12.7.3.22,13.01,13.03,11.05,10.016,21]hexacosa-3(11),5,7,9,16(21),17,19-heptaen-20-ol

$$$$
