
     RDKit          3D

 80 82  0  0  0  0  0  0  0  0999 V2000
    0.6433    0.2233    1.7058 O   0  0  0  0  0  0  0  0  0  0  0  0
    0.6220   -0.9544    1.2293 C   0  0  0  0  0  0  0  0  0  0  0  0
    1.8538   -1.6683    1.2507 N   0  0  0  0  0  0  0  0  0  0  0  0
    3.0829   -1.0943    1.7851 C   0  0  2  0  0  0  0  0  0  0  0  0
    4.1206   -0.9493    0.7576 C   0  0  0  0  0  0  0  0  0  0  0  0
    3.8569   -1.3246   -0.4098 O   0  0  0  0  0  0  0  0  0  0  0  0
    5.3420   -0.4107    1.1010 O   0  0  0  0  0  0  0  0  0  0  0  0
    6.4363   -0.2046    0.2375 C   0  0  0  0  0  0  0  0  0  0  0  0
    6.1585    0.6923   -0.8916 C   0  0  0  0  0  0  0  0  0  0  0  0
    6.2992    2.0754   -0.7241 C   0  0  0  0  0  0  0  0  0  0  0  0
    6.0656    2.9629   -1.7423 C   0  0  0  0  0  0  0  0  0  0  0  0
    5.6774    2.5051   -2.9855 C   0  0  0  0  0  0  0  0  0  0  0  0
    5.5292    1.1644   -3.1898 C   0  0  0  0  0  0  0  0  0  0  0  0
    5.7702    0.2840   -2.1477 C   0  0  0  0  0  0  0  0  0  0  0  0
    5.1099    0.6162   -4.5211 C   0  0  0  0  0  0  0  0  0  0  0  0
    4.4162   -0.5589   -4.4017 F   0  0  0  0  0  0  0  0  0  0  0  0
    6.2548    0.3336   -5.2683 F   0  0  0  0  0  0  0  0  0  0  0  0
    4.3305    1.5874   -5.1114 F   0  0  0  0  0  0  0  0  0  0  0  0
    6.2274    4.4224   -1.5165 C   0  0  0  0  0  0  0  0  0  0  0  0
    6.8137    4.9910   -2.6151 F   0  0  0  0  0  0  0  0  0  0  0  0
    4.9901    5.0027   -1.2295 F   0  0  0  0  0  0  0  0  0  0  0  0
    7.0195    4.6884   -0.4199 F   0  0  0  0  0  0  0  0  0  0  0  0
    3.5215   -1.7789    3.0427 C   0  0  0  0  0  0  0  0  0  0  0  0
    3.7998   -3.2105    2.9269 C   0  0  0  0  0  0  0  0  0  0  0  0
    2.7570   -4.1003    3.1490 C   0  0  0  0  0  0  0  0  0  0  0  0
    2.9457   -5.4811    3.0564 C   0  0  0  0  0  0  0  0  0  0  0  0
    4.1964   -6.0058    2.7358 C   0  0  0  0  0  0  0  0  0  0  0  0
    5.2063   -5.1210    2.5215 C   0  0  0  0  0  0  0  0  0  0  0  0
    5.0279   -3.7551    2.6112 C   0  0  0  0  0  0  0  0  0  0  0  0
    4.3440   -7.3492    2.6541 F   0  0  0  0  0  0  0  0  0  0  0  0
   -0.6078   -1.5730    0.6749 C   0  0  0  0  0  0  0  0  0  0  0  0
   -1.7028   -0.6134    0.7910 N   0  0  0  0  0  0  0  0  0  0  0  0
   -2.0464   -0.1765    2.0989 C   0  0  0  0  0  0  0  0  0  0  0  0
   -1.4046   -0.6267    3.1095 O   0  0  0  0  0  0  0  0  0  0  0  0
   -3.1225    0.7890    2.3934 C   0  0  2  0  0  0  0  0  0  0  0  0
   -3.8205    1.2866    1.2522 N   0  0  0  0  0  0  0  0  0  0  0  0
   -5.2269    1.0969    1.1388 C   0  0  0  0  0  0  0  0  0  0  0  0
   -5.8766    0.4931    2.0300 O   0  0  0  0  0  0  0  0  0  0  0  0
   -5.9983    1.6067   -0.0441 C   0  0  2  0  0  0  0  0  0  0  0  0
   -6.7801    0.4785   -0.6164 C   0  0  0  0  0  0  0  0  0  0  0  0
   -7.6027    0.7944   -1.7856 C   0  0  0  0  0  0  0  0  0  0  0  0
   -8.9064    1.2191   -1.5584 C   0  0  0  0  0  0  0  0  0  0  0  0
   -9.7343    1.5320   -2.6181 C   0  0  0  0  0  0  0  0  0  0  0  0
   -9.3329    1.4459   -3.9340 C   0  0  0  0  0  0  0  0  0  0  0  0
   -8.0231    1.0191   -4.1633 C   0  0  0  0  0  0  0  0  0  0  0  0
   -7.1866    0.7031   -3.0964 C   0  0  0  0  0  0  0  0  0  0  0  0
  -10.1710    1.7623   -4.9897 O   0  0  0  0  0  0  0  0  0  0  0  0
   -5.0726    2.2424   -0.9219 N   0  0  0  0  0  0  0  0  0  0  0  0
   -2.5068    1.8898    3.2353 C   0  0  0  0  0  0  0  0  0  0  0  0
    1.9360   -2.6598    0.8756 H   0  0  0  0  0  0  0  0  0  0  0  0
    2.7940   -0.0530    2.1183 H   0  0  0  0  0  0  0  0  0  0  0  0
    7.2428    0.2187    0.8890 H   0  0  0  0  0  0  0  0  0  0  0  0
    6.8417   -1.1888   -0.0885 H   0  0  0  0  0  0  0  0  0  0  0  0
    6.6037    2.4369    0.2519 H   0  0  0  0  0  0  0  0  0  0  0  0
    5.4891    3.2082   -3.8027 H   0  0  0  0  0  0  0  0  0  0  0  0
    5.6487   -0.7627   -2.3576 H   0  0  0  0  0  0  0  0  0  0  0  0
    2.7690   -1.5572    3.8309 H   0  0  0  0  0  0  0  0  0  0  0  0
    4.4549   -1.2628    3.3841 H   0  0  0  0  0  0  0  0  0  0  0  0
    1.7648   -3.7056    3.4022 H   0  0  0  0  0  0  0  0  0  0  0  0
    2.0917   -6.1101    3.2420 H   0  0  0  0  0  0  0  0  0  0  0  0
    6.1888   -5.5184    2.2703 H   0  0  0  0  0  0  0  0  0  0  0  0
    5.8695   -3.0674    2.4308 H   0  0  0  0  0  0  0  0  0  0  0  0
   -0.3896   -1.7398   -0.4120 H   0  0  0  0  0  0  0  0  0  0  0  0
   -0.8520   -2.5482    1.0968 H   0  0  0  0  0  0  0  0  0  0  0  0
   -2.2283   -0.2452   -0.0211 H   0  0  0  0  0  0  0  0  0  0  0  0
   -3.8576    0.2768    3.0806 H   0  0  0  0  0  0  0  0  0  0  0  0
   -3.2855    1.7890    0.5075 H   0  0  0  0  0  0  0  0  0  0  0  0
   -6.7301    2.3390    0.3669 H   0  0  0  0  0  0  0  0  0  0  0  0
   -6.0263   -0.2898   -0.9604 H   0  0  0  0  0  0  0  0  0  0  0  0
   -7.3672   -0.0148    0.1703 H   0  0  0  0  0  0  0  0  0  0  0  0
   -9.2713    1.3032   -0.5276 H   0  0  0  0  0  0  0  0  0  0  0  0
  -10.7395    1.8577   -2.3810 H   0  0  0  0  0  0  0  0  0  0  0  0
   -7.7070    0.9511   -5.1877 H   0  0  0  0  0  0  0  0  0  0  0  0
   -6.1763    0.3746   -3.2976 H   0  0  0  0  0  0  0  0  0  0  0  0
  -11.1380    1.9668   -4.7677 H   0  0  0  0  0  0  0  0  0  0  0  0
   -5.4129    3.1398   -1.3337 H   0  0  0  0  0  0  0  0  0  0  0  0
   -4.8642    1.6108   -1.7267 H   0  0  0  0  0  0  0  0  0  0  0  0
   -1.7512    2.3824    2.6181 H   0  0  0  0  0  0  0  0  0  0  0  0
   -1.9559    1.3752    4.0722 H   0  0  0  0  0  0  0  0  0  0  0  0
   -3.2377    2.5425    3.7207 H   0  0  0  0  0  0  0  0  0  0  0  0
  1  2  2  0
  2  3  1  0
  3  4  1  0
  4  5  1  0
  5  6  2  0
  5  7  1  0
  7  8  1  0
  8  9  1  0
  9 10  2  0
 10 11  1  0
 11 12  2  0
 12 13  1  0
 13 14  2  0
 13 15  1  0
 15 16  1  0
 15 17  1  0
 15 18  1  0
 11 19  1  0
 19 20  1  0
 19 21  1  0
 19 22  1  0
  4 23  1  0
 23 24  1  0
 24 25  2  0
 25 26  1  0
 26 27  2  0
 27 28  1  0
 28 29  2  0
 27 30  1  0
  2 31  1  0
 31 32  1  0
 32 33  1  0
 33 34  2  0
 33 35  1  0
 35 36  1  0
 36 37  1  0
 37 38  2  0
 37 39  1  0
 39 40  1  0
 40 41  1  0
 41 42  2  0
 42 43  1  0
 43 44  2  0
 44 45  1  0
 45 46  2  0
 44 47  1  0
 39 48  1  0
 35 49  1  0
 14  9  1  0
 29 24  1  0
 46 41  1  0
  3 50  1  0
  4 51  1  1
  8 52  1  0
  8 53  1  0
 10 54  1  0
 12 55  1  0
 14 56  1  0
 23 57  1  0
 23 58  1  0
 25 59  1  0
 26 60  1  0
 28 61  1  0
 29 62  1  0
 31 63  1  0
 31 64  1  0
 32 65  1  0
 35 66  1  1
 36 67  1  0
 39 68  1  1
 40 69  1  0
 40 70  1  0
 42 71  1  0
 43 72  1  0
 45 73  1  0
 46 74  1  0
 47 75  1  0
 48 76  1  0
 48 77  1  0
 49 78  1  0
 49 79  1  0
 49 80  1  0
M  END
>  <Ligand ID>  (1) 
LIG0005370

>  <Ligand>  (1) 
CHEMBL3609618

>  <SMILES>  (1) 
O=C(N[C@H](C(=O)OCc1cc(cc(c1)C(F)(F)F)C(F)(F)F)Cc1ccc(cc1)F)CNC(=O)[C@H](NC(=O)[C@H](Cc1ccc(cc1)O)N)C

>  <CID>  (1) 
122187723.0

>  <ChEMBL ID>  (1) 
nan

>  <InChiKey>  (1) 
ZASPFNTXFLESNS-PLZPTFKGSA-N

>  <InChi>  (1) 
InChI=1S/C32H31F7N4O6/c1-17(42-29(47)25(40)12-18-4-8-24(44)9-5-18)28(46)41-15-27(45)43-26(13-19-2-6-23(33)7-3-19)30(48)49-16-20-10-21(31(34,35)36)14-22(11-20)32(37,38)39/h2-11,14,17,25-26,44H,12-13,15-16,40H2,1H3,(H,41,46)(H,42,47)(H,43,45)/t17-,25+,26+/m1/s1

>  <IUPAC Name>  (1) 
[3,5-bis(trifluoromethyl)phenyl]methyl (2S)-2-[[2-[[(2R)-2-[[(2S)-2-amino-3-(4-hydroxyphenyl)propanoyl]amino]propanoyl]amino]acetyl]amino]-3-(4-fluorophenyl)propanoate

$$$$
