
     RDKit          3D

 46 48  0  0  0  0  0  0  0  0999 V2000
   -3.6534   -2.6346    1.5115 C   0  0  0  0  0  0  0  0  0  0  0  0
   -2.8716   -1.9303    0.4158 C   0  0  0  0  0  0  0  0  0  0  0  0
   -3.6337   -0.7275   -0.1311 C   0  0  0  0  0  0  0  0  0  0  0  0
   -2.8522   -0.0316   -1.2188 C   0  0  0  0  0  0  0  0  0  0  0  0
   -1.5754    0.4773   -0.8077 N   0  0  0  0  0  0  0  0  0  0  0  0
   -0.4278   -0.3655   -0.9212 C   0  0  0  0  0  0  0  0  0  0  0  0
   -0.5930   -1.2797   -1.8021 O   0  0  0  0  0  0  0  0  0  0  0  0
    0.8748   -0.4246   -0.2723 C   0  0  0  0  0  0  0  0  0  0  0  0
    1.9013   -1.1085   -1.1761 C   0  0  0  0  0  0  0  0  0  0  0  0
    3.2370   -1.1954   -0.5688 C   0  0  0  0  0  0  0  0  0  0  0  0
    4.2250   -0.2486   -0.7003 C   0  0  0  0  0  0  0  0  0  0  0  0
    5.4639   -0.4130   -0.0885 C   0  0  0  0  0  0  0  0  0  0  0  0
    5.7255   -1.5432    0.6702 C   0  0  0  0  0  0  0  0  0  0  0  0
    4.7271   -2.5022    0.8044 C   0  0  0  0  0  0  0  0  0  0  0  0
    3.5092   -2.3316    0.1978 C   0  0  0  0  0  0  0  0  0  0  0  0
    1.4373    0.8164    0.1537 N   0  0  0  0  0  0  0  0  0  0  0  0
    0.9623    2.1571    0.0968 C   0  0  0  0  0  0  0  0  0  0  0  0
    1.8011    3.0829    0.0338 O   0  0  0  0  0  0  0  0  0  0  0  0
   -0.4326    2.5853    0.1040 C   0  0  0  0  0  0  0  0  0  0  0  0
   -1.5120    1.8238   -0.2971 C   0  0  0  0  0  0  0  0  0  0  0  0
   -2.7526    2.4062   -0.2141 C   0  0  0  0  0  0  0  0  0  0  0  0
   -2.9045    3.6965    0.2508 C   0  0  0  0  0  0  0  0  0  0  0  0
   -1.8356    4.4621    0.6522 C   0  0  0  0  0  0  0  0  0  0  0  0
   -0.5864    3.8911    0.5746 C   0  0  0  0  0  0  0  0  0  0  0  0
   -4.7102   -2.6431    1.2241 H   0  0  0  0  0  0  0  0  0  0  0  0
   -3.4924   -2.0588    2.4394 H   0  0  0  0  0  0  0  0  0  0  0  0
   -3.2277   -3.6605    1.6178 H   0  0  0  0  0  0  0  0  0  0  0  0
   -2.5731   -2.6302   -0.4083 H   0  0  0  0  0  0  0  0  0  0  0  0
   -1.9035   -1.6188    0.8800 H   0  0  0  0  0  0  0  0  0  0  0  0
   -3.8665   -0.1119    0.7430 H   0  0  0  0  0  0  0  0  0  0  0  0
   -4.5424   -1.1327   -0.6194 H   0  0  0  0  0  0  0  0  0  0  0  0
   -2.5724   -0.9150   -1.8945 H   0  0  0  0  0  0  0  0  0  0  0  0
   -3.4265    0.5590   -1.9285 H   0  0  0  0  0  0  0  0  0  0  0  0
    0.7816   -1.1131    0.6132 H   0  0  0  0  0  0  0  0  0  0  0  0
    1.9911   -0.5629   -2.1465 H   0  0  0  0  0  0  0  0  0  0  0  0
    1.5497   -2.1391   -1.4449 H   0  0  0  0  0  0  0  0  0  0  0  0
    4.0118    0.6409   -1.3006 H   0  0  0  0  0  0  0  0  0  0  0  0
    6.2309    0.3499   -0.2066 H   0  0  0  0  0  0  0  0  0  0  0  0
    6.6613   -1.7204    1.1629 H   0  0  0  0  0  0  0  0  0  0  0  0
    4.8943   -3.4092    1.3955 H   0  0  0  0  0  0  0  0  0  0  0  0
    2.7499   -3.1138    0.3302 H   0  0  0  0  0  0  0  0  0  0  0  0
    2.3804    0.7223    0.5931 H   0  0  0  0  0  0  0  0  0  0  0  0
   -3.6224    1.8784   -0.5046 H   0  0  0  0  0  0  0  0  0  0  0  0
   -3.9026    4.1231    0.3018 H   0  0  0  0  0  0  0  0  0  0  0  0
   -1.9611    5.4782    1.0178 H   0  0  0  0  0  0  0  0  0  0  0  0
    0.3160    4.4151    0.8678 H   0  0  0  0  0  0  0  0  0  0  0  0
  1  2  1  0
  2  3  1  0
  3  4  1  0
  4  5  1  0
  5  6  1  0
  6  7  2  0
  6  8  1  0
  8  9  1  0
  9 10  1  0
 10 11  2  0
 11 12  1  0
 12 13  2  0
 13 14  1  0
 14 15  2  0
  8 16  1  0
 16 17  1  0
 17 18  2  0
 17 19  1  0
 19 20  2  0
 20 21  1  0
 21 22  2  0
 22 23  1  0
 23 24  2  0
 20  5  1  0
 15 10  1  0
 24 19  1  0
  1 25  1  0
  1 26  1  0
  1 27  1  0
  2 28  1  0
  2 29  1  0
  3 30  1  0
  3 31  1  0
  4 32  1  0
  4 33  1  0
  8 34  1  0
  9 35  1  0
  9 36  1  0
 11 37  1  0
 12 38  1  0
 13 39  1  0
 14 40  1  0
 15 41  1  0
 16 42  1  0
 21 43  1  0
 22 44  1  0
 23 45  1  0
 24 46  1  0
M  END
>  <Ligand ID>  (1) 
LIG0004329

>  <Ligand>  (1) 
CHEMBL270689

>  <SMILES>  (1) 
CCCCN1C(=O)C(Cc2ccccc2)NC(=O)c2c1cccc2

>  <CID>  (1) 
44456956.0

>  <ChEMBL ID>  (1) 
nan

>  <InChiKey>  (1) 
XQZLCAHTPXINJY-UHFFFAOYSA-N

>  <InChi>  (1) 
InChI=1S/C20H22N2O2/c1-2-3-13-22-18-12-8-7-11-16(18)19(23)21-17(20(22)24)14-15-9-5-4-6-10-15/h4-12,17H,2-3,13-14H2,1H3,(H,21,23)

>  <IUPAC Name>  (1) 
3-benzyl-1-butyl-3,4-dihydro-1,4-benzodiazepine-2,5-dione

$$$$
