
     RDKit          3D

 27 27  0  0  0  0  0  0  0  0999 V2000
    0.7852    0.5700    1.1861 O   0  0  0  0  0  0  0  0  0  0  0  0
    1.0742   -0.1315    0.1579 C   0  0  0  0  0  0  0  0  0  0  0  0
    2.4099   -0.7192   -0.0065 C   0  0  0  0  0  0  0  0  0  0  0  0
    3.2265   -0.3067    1.2269 C   0  0  0  0  0  0  0  0  0  0  0  0
    3.1488   -0.2297   -1.2266 C   0  0  0  0  0  0  0  0  0  0  0  0
    0.0959   -0.3347   -0.8167 O   0  0  0  0  0  0  0  0  0  0  0  0
   -1.1399    0.2758   -0.5494 C   0  0  0  0  0  0  0  0  0  0  0  0
   -1.3706    1.5775   -1.0007 C   0  0  0  0  0  0  0  0  0  0  0  0
   -2.5875    2.1725   -0.7350 C   0  0  0  0  0  0  0  0  0  0  0  0
   -3.5619    1.4724   -0.0257 C   0  0  0  0  0  0  0  0  0  0  0  0
   -3.3601    0.1930    0.4284 C   0  0  0  0  0  0  0  0  0  0  0  0
   -2.1283   -0.4126    0.1608 C   0  0  0  0  0  0  0  0  0  0  0  0
   -1.8842   -1.7918    0.6391 C   0  0  0  0  0  0  0  0  0  0  0  0
    2.4094   -1.8272    0.0241 H   0  0  0  0  0  0  0  0  0  0  0  0
    3.1570    0.8092    1.2838 H   0  0  0  0  0  0  0  0  0  0  0  0
    4.2922   -0.5164    1.0501 H   0  0  0  0  0  0  0  0  0  0  0  0
    2.8483   -0.7618    2.1531 H   0  0  0  0  0  0  0  0  0  0  0  0
    2.5107    0.0721   -2.0632 H   0  0  0  0  0  0  0  0  0  0  0  0
    3.8467    0.6071   -0.9991 H   0  0  0  0  0  0  0  0  0  0  0  0
    3.8107   -1.0543   -1.6136 H   0  0  0  0  0  0  0  0  0  0  0  0
   -0.5729    2.0723   -1.5483 H   0  0  0  0  0  0  0  0  0  0  0  0
   -2.7740    3.1963   -1.0877 H   0  0  0  0  0  0  0  0  0  0  0  0
   -4.5323    1.9384    0.1898 H   0  0  0  0  0  0  0  0  0  0  0  0
   -4.1164   -0.3687    0.9866 H   0  0  0  0  0  0  0  0  0  0  0  0
   -2.8573   -2.2634    0.9013 H   0  0  0  0  0  0  0  0  0  0  0  0
   -1.2387   -1.8735    1.5143 H   0  0  0  0  0  0  0  0  0  0  0  0
   -1.4919   -2.3649   -0.2298 H   0  0  0  0  0  0  0  0  0  0  0  0
  1  2  2  0
  2  3  1  0
  3  4  1  0
  3  5  1  0
  2  6  1  0
  6  7  1  0
  7  8  2  0
  8  9  1  0
  9 10  2  0
 10 11  1  0
 11 12  2  0
 12 13  1  0
 12  7  1  0
  3 14  1  0
  4 15  1  0
  4 16  1  0
  4 17  1  0
  5 18  1  0
  5 19  1  0
  5 20  1  0
  8 21  1  0
  9 22  1  0
 10 23  1  0
 11 24  1  0
 13 25  1  0
 13 26  1  0
 13 27  1  0
M  END
>  <Ligand ID>  (1) 
LIG0000195

>  <Ligand>  (1) 
o-Tolyl isobutyrate

>  <SMILES>  (1) 
O=C(C(C)C)Oc1ccccc1C

>  <CID>  (1) 
61954.0

>  <ChEMBL ID>  (1) 
nan

>  <InChiKey>  (1) 
FDJBDZVTTXWIQM-UHFFFAOYSA-N

>  <InChi>  (1) 
InChI=1S/C11H14O2/c1-8(2)11(12)13-10-7-5-4-6-9(10)3/h4-8H,1-3H3

>  <IUPAC Name>  (1) 
(2-methylphenyl) 2-methylpropanoate

$$$$
