
     RDKit          3D

 35 37  0  0  0  0  0  0  0  0999 V2000
   -3.1948    0.5053    1.9745 C   0  0  0  0  0  0  0  0  0  0  0  0
   -2.9156    1.3339    0.7419 C   0  0  0  0  0  0  0  0  0  0  0  0
   -2.3122    0.4324   -0.2733 C   0  0  0  0  0  0  0  0  0  0  0  0
   -3.1234   -0.0092   -1.3239 C   0  0  0  0  0  0  0  0  0  0  0  0
   -2.6583   -0.8474   -2.3094 C   0  0  0  0  0  0  0  0  0  0  0  0
   -1.3665   -1.2662   -2.2685 C   0  0  0  0  0  0  0  0  0  0  0  0
   -0.5689   -0.8231   -1.2226 C   0  0  0  0  0  0  0  0  0  0  0  0
   -1.0015    0.0076   -0.2318 C   0  0  0  0  0  0  0  0  0  0  0  0
   -0.1378    0.4607    0.8590 C   0  0  0  0  0  0  0  0  0  0  0  0
    1.2814    0.0609    0.8187 C   0  0  2  0  0  0  0  0  0  0  0  0
    2.1635    1.2626    0.6658 C   0  0  0  0  0  0  0  0  0  0  0  0
    3.4356    1.0306    0.1062 N   0  0  0  0  0  0  0  0  0  0  0  0
    3.9781   -0.2676    0.0674 C   0  0  0  0  0  0  0  0  0  0  0  0
    3.0292   -1.4136   -0.1126 C   0  0  0  0  0  0  0  0  0  0  0  0
    1.6602   -0.8825   -0.1981 N   0  0  0  0  0  0  0  0  0  0  0  0
    0.8223   -1.3163   -1.2453 C   0  0  0  0  0  0  0  0  0  0  0  0
    1.2408   -2.0822   -2.1486 O   0  0  0  0  0  0  0  0  0  0  0  0
   -2.6187    0.9267    2.8251 H   0  0  0  0  0  0  0  0  0  0  0  0
   -4.2877    0.5111    2.1760 H   0  0  0  0  0  0  0  0  0  0  0  0
   -2.9068   -0.5531    1.8208 H   0  0  0  0  0  0  0  0  0  0  0  0
   -3.8661    1.7458    0.3532 H   0  0  0  0  0  0  0  0  0  0  0  0
   -2.1851    2.1597    0.9685 H   0  0  0  0  0  0  0  0  0  0  0  0
   -4.1641    0.3151   -1.3759 H   0  0  0  0  0  0  0  0  0  0  0  0
   -3.3015   -1.1876   -3.1284 H   0  0  0  0  0  0  0  0  0  0  0  0
   -0.9936   -1.9229   -3.0368 H   0  0  0  0  0  0  0  0  0  0  0  0
   -0.6077    0.1041    1.8233 H   0  0  0  0  0  0  0  0  0  0  0  0
   -0.2353    1.5721    0.9289 H   0  0  0  0  0  0  0  0  0  0  0  0
    1.5845   -0.4143    1.7901 H   0  0  0  0  0  0  0  0  0  0  0  0
    2.2572    1.7680    1.6439 H   0  0  0  0  0  0  0  0  0  0  0  0
    1.6099    1.9732   -0.0029 H   0  0  0  0  0  0  0  0  0  0  0  0
    3.7515    1.7149   -0.5934 H   0  0  0  0  0  0  0  0  0  0  0  0
    4.6959   -0.3076   -0.8057 H   0  0  0  0  0  0  0  0  0  0  0  0
    4.6033   -0.4556    0.9644 H   0  0  0  0  0  0  0  0  0  0  0  0
    3.0834   -2.1074    0.7543 H   0  0  0  0  0  0  0  0  0  0  0  0
    3.2491   -2.0280   -1.0046 H   0  0  0  0  0  0  0  0  0  0  0  0
  1  2  1  0
  2  3  1  0
  3  4  2  0
  4  5  1  0
  5  6  2  0
  6  7  1  0
  7  8  2  0
  8  9  1  0
  9 10  1  0
 10 11  1  0
 11 12  1  0
 12 13  1  0
 13 14  1  0
 14 15  1  0
 15 16  1  0
 16 17  2  0
  8  3  1  0
 15 10  1  0
 16  7  1  0
  1 18  1  0
  1 19  1  0
  1 20  1  0
  2 21  1  0
  2 22  1  0
  4 23  1  0
  5 24  1  0
  6 25  1  0
  9 26  1  0
  9 27  1  0
 10 28  1  1
 11 29  1  0
 11 30  1  0
 12 31  1  0
 13 32  1  0
 13 33  1  0
 14 34  1  0
 14 35  1  0
M  END
>  <Ligand ID>  (1) 
LIG0004118

>  <Ligand>  (1) 
CHEMBL2397905

>  <SMILES>  (1) 
CCc1cccc2c1C[C@@H]1CNCCN1C2=O

>  <CID>  (1) 
58911668.0

>  <ChEMBL ID>  (1) 
nan

>  <InChiKey>  (1) 
UCSAFIUXBDXOND-LLVKDONJSA-N

>  <InChi>  (1) 
InChI=1S/C14H18N2O/c1-2-10-4-3-5-12-13(10)8-11-9-15-6-7-16(11)14(12)17/h3-5,11,15H,2,6-9H2,1H3/t11-/m1/s1

>  <IUPAC Name>  (1) 
(11aR)-10-ethyl-1,2,3,4,11,11a-hexahydropyrazino[1,2-b]isoquinolin-6-one

$$$$
