
     RDKit          3D

153157  0  0  0  0  0  0  0  0999 V2000
   10.1843   -2.2239   -1.8869 C   0  0  0  0  0  0  0  0  0  0  0  0
   10.2820   -0.7873   -1.4600 C   0  0  0  0  0  0  0  0  0  0  0  0
    9.5663   -0.6535   -0.1055 C   0  0  0  0  0  0  0  0  0  0  0  0
    9.6599    0.7675    0.3426 C   0  0  0  0  0  0  0  0  0  0  0  0
    8.9880    0.9982    1.6601 C   0  0  1  0  0  0  0  0  0  0  0  0
    7.5516    0.6585    1.5596 C   0  0  0  0  0  0  0  0  0  0  0  0
    7.0616   -0.0268    2.5014 O   0  0  0  0  0  0  0  0  0  0  0  0
    6.7460    1.0684    0.4757 N   0  0  0  0  0  0  0  0  0  0  0  0
    5.3151    0.7668    0.3651 C   0  0  1  0  0  0  0  0  0  0  0  0
    4.6273    2.0102   -0.1240 C   0  0  0  0  0  0  0  0  0  0  0  0
    3.4067    1.8211   -0.9112 C   0  0  0  0  0  0  0  0  0  0  0  0
    2.8774    0.7428   -1.2358 O   0  0  0  0  0  0  0  0  0  0  0  0
    2.6651    2.9586   -1.4248 N   0  0  0  0  0  0  0  0  0  0  0  0
    1.4864    2.7822   -2.2670 C   0  0  0  0  0  0  0  0  0  0  0  0
    0.9004    4.1397   -2.6338 C   0  0  0  0  0  0  0  0  0  0  0  0
    0.1872    4.7132   -1.4192 C   0  0  0  0  0  0  0  0  0  0  0  0
   -0.2256    6.1294   -1.6360 C   0  0  0  0  0  0  0  0  0  0  0  0
   -1.0153    6.7265   -0.4545 C   0  0  2  0  0  0  0  0  0  0  0  0
   -2.3448    6.1903   -0.4667 N   0  0  0  0  0  0  0  0  0  0  0  0
   -2.8419    5.0698    0.2398 C   0  0  0  0  0  0  0  0  0  0  0  0
   -2.0286    4.4114    0.8868 O   0  0  0  0  0  0  0  0  0  0  0  0
   -4.2588    4.6672    0.2187 C   0  0  2  0  0  0  0  0  0  0  0  0
   -4.8822    5.3876    1.4862 C   0  0  0  0  0  0  0  0  0  0  0  0
   -4.4493    3.2504    0.4423 N   0  0  0  0  0  0  0  0  0  0  0  0
   -5.7435    2.6188    0.4203 C   0  0  0  0  0  0  0  0  0  0  0  0
   -6.6944    3.3995    0.3204 O   0  0  0  0  0  0  0  0  0  0  0  0
   -5.8258    1.1483    0.5341 C   0  0  1  0  0  0  0  0  0  0  0  0
   -4.6821    0.5049   -0.0245 N   0  0  0  0  0  0  0  0  0  0  0  0
   -4.2176   -0.8244    0.1034 C   0  0  0  0  0  0  0  0  0  0  0  0
   -4.7530   -1.4968    0.9972 O   0  0  0  0  0  0  0  0  0  0  0  0
   -3.1532   -1.2655   -0.8079 C   0  0  1  0  0  0  0  0  0  0  0  0
   -2.5495   -2.5277   -0.3425 N   0  0  0  0  0  0  0  0  0  0  0  0
   -1.1530   -2.6642   -0.5643 C   0  0  0  0  0  0  0  0  0  0  0  0
   -0.6240   -1.7498   -1.2299 O   0  0  0  0  0  0  0  0  0  0  0  0
   -0.2973   -3.7611   -0.0980 C   0  0  2  0  0  0  0  0  0  0  0  0
    1.0471   -3.5833   -0.6847 N   0  0  0  0  0  0  0  0  0  0  0  0
    1.9652   -2.6526   -0.1235 C   0  0  0  0  0  0  0  0  0  0  0  0
    1.5312   -1.9956    0.8352 O   0  0  0  0  0  0  0  0  0  0  0  0
    3.3448   -2.4083   -0.5819 C   0  0  1  0  0  0  0  0  0  0  0  0
    3.8742   -1.2189    0.0601 N   0  0  0  0  0  0  0  0  0  0  0  0
    4.9984   -0.4648   -0.3822 C   0  0  0  0  0  0  0  0  0  0  0  0
    5.6093   -0.9308   -1.3450 O   0  0  0  0  0  0  0  0  0  0  0  0
    4.2383   -3.6180   -0.1948 C   0  0  0  0  0  0  0  0  0  0  0  0
    4.2654   -3.8279    1.2528 C   0  0  0  0  0  0  0  0  0  0  0  0
    3.3633   -4.6506    1.9272 C   0  0  0  0  0  0  0  0  0  0  0  0
    3.7192   -4.5767    3.2225 N   0  0  0  0  0  0  0  0  0  0  0  0
    4.7777   -3.7593    3.3363 C   0  0  0  0  0  0  0  0  0  0  0  0
    5.1342   -3.2833    2.1357 N   0  0  0  0  0  0  0  0  0  0  0  0
   -0.8138   -5.1299   -0.1264 C   0  0  0  0  0  0  0  0  0  0  0  0
   -1.2147   -5.6864   -1.4218 C   0  0  0  0  0  0  0  0  0  0  0  0
   -2.4813   -5.6037   -1.9575 C   0  0  0  0  0  0  0  0  0  0  0  0
   -2.7685   -6.1628   -3.2124 C   0  0  0  0  0  0  0  0  0  0  0  0
   -1.8060   -6.8109   -3.9538 C   0  0  0  0  0  0  0  0  0  0  0  0
   -0.5392   -6.8912   -3.4147 C   0  0  0  0  0  0  0  0  0  0  0  0
   -0.2654   -6.3421   -2.1874 C   0  0  0  0  0  0  0  0  0  0  0  0
   -3.4396   -1.3027   -2.2511 C   0  0  0  0  0  0  0  0  0  0  0  0
   -4.4439   -2.1079   -2.9086 C   0  0  0  0  0  0  0  0  0  0  0  0
   -5.8908   -1.9871   -2.6614 C   0  0  0  0  0  0  0  0  0  0  0  0
   -6.2846   -2.2865   -1.3289 N   0  0  0  0  0  0  0  0  0  0  0  0
   -6.6452   -3.4592   -0.9625 C   0  0  0  0  0  0  0  0  0  0  0  0
   -6.6898   -4.5871   -1.8525 N   0  0  0  0  0  0  0  0  0  0  0  0
   -7.0143   -3.6305    0.3944 N   0  0  0  0  0  0  0  0  0  0  0  0
   -6.0840    0.7860    2.0152 C   0  0  0  0  0  0  0  0  0  0  0  0
   -7.3777    1.4454    2.4037 C   0  0  0  0  0  0  0  0  0  0  0  0
   -7.5709    2.5752    3.1712 C   0  0  0  0  0  0  0  0  0  0  0  0
   -8.8795    2.8444    3.2779 N   0  0  0  0  0  0  0  0  0  0  0  0
   -9.5908    1.9185    2.5974 C   0  0  0  0  0  0  0  0  0  0  0  0
   -8.6653    1.0464    2.0513 C   0  0  0  0  0  0  0  0  0  0  0  0
   -9.1568    0.0015    1.2939 C   0  0  0  0  0  0  0  0  0  0  0  0
  -10.4981   -0.1824    1.0783 C   0  0  0  0  0  0  0  0  0  0  0  0
  -11.4349    0.6767    1.6145 C   0  0  0  0  0  0  0  0  0  0  0  0
  -10.9581    1.7222    2.3718 C   0  0  0  0  0  0  0  0  0  0  0  0
   -1.0131    8.1932   -0.6357 C   0  0  0  0  0  0  0  0  0  0  0  0
   -2.0941    8.8446   -0.7727 O   0  0  0  0  0  0  0  0  0  0  0  0
    0.1850    8.9283   -0.6655 N   0  0  0  0  0  0  0  0  0  0  0  0
    9.6299    0.3358    2.7729 N   0  0  0  0  0  0  0  0  0  0  0  0
   10.3059    1.0327    3.8168 C   0  0  0  0  0  0  0  0  0  0  0  0
   10.4065    2.2859    3.8598 O   0  0  0  0  0  0  0  0  0  0  0  0
   10.9152    0.2115    4.9056 C   0  0  0  0  0  0  0  0  0  0  0  0
   11.1513   -2.5104   -2.3616 H   0  0  0  0  0  0  0  0  0  0  0  0
    9.9755   -2.8889   -1.0138 H   0  0  0  0  0  0  0  0  0  0  0  0
    9.3586   -2.3650   -2.6189 H   0  0  0  0  0  0  0  0  0  0  0  0
    9.7831   -0.0745   -2.1538 H   0  0  0  0  0  0  0  0  0  0  0  0
   11.3272   -0.4414   -1.2890 H   0  0  0  0  0  0  0  0  0  0  0  0
    8.5427   -0.9936   -0.2685 H   0  0  0  0  0  0  0  0  0  0  0  0
   10.0881   -1.2991    0.6403 H   0  0  0  0  0  0  0  0  0  0  0  0
    9.1643    1.3917   -0.4589 H   0  0  0  0  0  0  0  0  0  0  0  0
   10.7261    1.0991    0.3468 H   0  0  0  0  0  0  0  0  0  0  0  0
    9.0931    2.1340    1.8284 H   0  0  0  0  0  0  0  0  0  0  0  0
    7.1512    1.6296   -0.3289 H   0  0  0  0  0  0  0  0  0  0  0  0
    4.9966    0.5975    1.4351 H   0  0  0  0  0  0  0  0  0  0  0  0
    5.3731    2.5255   -0.8112 H   0  0  0  0  0  0  0  0  0  0  0  0
    4.4623    2.7131    0.7381 H   0  0  0  0  0  0  0  0  0  0  0  0
    3.0415    3.8601   -1.1428 H   0  0  0  0  0  0  0  0  0  0  0  0
    1.8052    2.3213   -3.2205 H   0  0  0  0  0  0  0  0  0  0  0  0
    0.7027    2.1666   -1.8221 H   0  0  0  0  0  0  0  0  0  0  0  0
    1.7841    4.7784   -2.8807 H   0  0  0  0  0  0  0  0  0  0  0  0
    0.1947    4.0098   -3.4439 H   0  0  0  0  0  0  0  0  0  0  0  0
   -0.7341    4.0691   -1.3183 H   0  0  0  0  0  0  0  0  0  0  0  0
    0.8256    4.6509   -0.5227 H   0  0  0  0  0  0  0  0  0  0  0  0
   -0.8614    6.2100   -2.5460 H   0  0  0  0  0  0  0  0  0  0  0  0
    0.6721    6.7440   -1.8466 H   0  0  0  0  0  0  0  0  0  0  0  0
   -0.4570    6.3969    0.4674 H   0  0  0  0  0  0  0  0  0  0  0  0
   -3.0461    6.6632   -1.0616 H   0  0  0  0  0  0  0  0  0  0  0  0
   -4.8394    5.1006   -0.5749 H   0  0  0  0  0  0  0  0  0  0  0  0
   -4.4085    6.3830    1.4607 H   0  0  0  0  0  0  0  0  0  0  0  0
   -4.5447    4.8696    2.3933 H   0  0  0  0  0  0  0  0  0  0  0  0
   -5.9498    5.4544    1.3199 H   0  0  0  0  0  0  0  0  0  0  0  0
   -3.6663    2.6271    0.6280 H   0  0  0  0  0  0  0  0  0  0  0  0
   -6.7287    0.7607    0.0543 H   0  0  0  0  0  0  0  0  0  0  0  0
   -4.0676    1.1077   -0.6308 H   0  0  0  0  0  0  0  0  0  0  0  0
   -2.3332   -0.4577   -0.7291 H   0  0  0  0  0  0  0  0  0  0  0  0
   -3.0224   -3.2885    0.1043 H   0  0  0  0  0  0  0  0  0  0  0  0
   -0.0879   -3.5094    1.0087 H   0  0  0  0  0  0  0  0  0  0  0  0
    1.3835   -4.0946   -1.4992 H   0  0  0  0  0  0  0  0  0  0  0  0
    3.5237   -2.3237   -1.6603 H   0  0  0  0  0  0  0  0  0  0  0  0
    3.4140   -0.8877    0.9057 H   0  0  0  0  0  0  0  0  0  0  0  0
    3.8167   -4.4720   -0.7558 H   0  0  0  0  0  0  0  0  0  0  0  0
    5.2432   -3.4158   -0.6306 H   0  0  0  0  0  0  0  0  0  0  0  0
    2.5443   -5.2324    1.5380 H   0  0  0  0  0  0  0  0  0  0  0  0
    5.3298   -3.4748    4.2460 H   0  0  0  0  0  0  0  0  0  0  0  0
    5.9323   -2.6172    1.8973 H   0  0  0  0  0  0  0  0  0  0  0  0
   -1.6713   -5.1743    0.6182 H   0  0  0  0  0  0  0  0  0  0  0  0
   -0.0470   -5.7944    0.3606 H   0  0  0  0  0  0  0  0  0  0  0  0
   -3.2754   -5.1027   -1.4052 H   0  0  0  0  0  0  0  0  0  0  0  0
   -3.7843   -6.0870   -3.6287 H   0  0  0  0  0  0  0  0  0  0  0  0
   -2.0563   -7.2277   -4.9183 H   0  0  0  0  0  0  0  0  0  0  0  0
    0.2386   -7.4093   -3.9958 H   0  0  0  0  0  0  0  0  0  0  0  0
    0.7540   -6.4421   -1.8199 H   0  0  0  0  0  0  0  0  0  0  0  0
   -2.4434   -1.5133   -2.7645 H   0  0  0  0  0  0  0  0  0  0  0  0
   -3.6151   -0.2243   -2.5524 H   0  0  0  0  0  0  0  0  0  0  0  0
   -4.1998   -3.2225   -2.9105 H   0  0  0  0  0  0  0  0  0  0  0  0
   -4.3202   -1.8944   -4.0391 H   0  0  0  0  0  0  0  0  0  0  0  0
   -6.3220   -1.0113   -3.0222 H   0  0  0  0  0  0  0  0  0  0  0  0
   -6.4624   -2.7272   -3.3169 H   0  0  0  0  0  0  0  0  0  0  0  0
   -7.4963   -4.7309   -2.5098 H   0  0  0  0  0  0  0  0  0  0  0  0
   -5.9103   -5.2534   -1.8342 H   0  0  0  0  0  0  0  0  0  0  0  0
   -6.4197   -4.2559    1.0022 H   0  0  0  0  0  0  0  0  0  0  0  0
   -7.8710   -3.1337    0.7933 H   0  0  0  0  0  0  0  0  0  0  0  0
   -5.3236    1.0973    2.6911 H   0  0  0  0  0  0  0  0  0  0  0  0
   -6.2812   -0.2894    2.1030 H   0  0  0  0  0  0  0  0  0  0  0  0
   -6.7339    3.1208    3.5934 H   0  0  0  0  0  0  0  0  0  0  0  0
   -9.3396    3.6334    3.7934 H   0  0  0  0  0  0  0  0  0  0  0  0
   -8.4656   -0.6894    0.8645 H   0  0  0  0  0  0  0  0  0  0  0  0
  -10.8783   -1.0127    0.4789 H   0  0  0  0  0  0  0  0  0  0  0  0
  -12.4934    0.5220    1.4338 H   0  0  0  0  0  0  0  0  0  0  0  0
  -11.6863    2.3988    2.7852 H   0  0  0  0  0  0  0  0  0  0  0  0
    0.7504    9.1889    0.1765 H   0  0  0  0  0  0  0  0  0  0  0  0
    0.5276    9.2356   -1.6125 H   0  0  0  0  0  0  0  0  0  0  0  0
    9.5825   -0.7063    2.7954 H   0  0  0  0  0  0  0  0  0  0  0  0
   10.2354   -0.6163    5.1766 H   0  0  0  0  0  0  0  0  0  0  0  0
   11.8967   -0.1296    4.5591 H   0  0  0  0  0  0  0  0  0  0  0  0
   10.9956    0.8761    5.8056 H   0  0  0  0  0  0  0  0  0  0  0  0
  1  2  1  0
  2  3  1  0
  3  4  1  0
  4  5  1  0
  5  6  1  0
  6  7  2  0
  6  8  1  0
  8  9  1  0
  9 10  1  0
 10 11  1  0
 11 12  2  0
 11 13  1  0
 13 14  1  0
 14 15  1  0
 15 16  1  0
 16 17  1  0
 17 18  1  0
 18 19  1  0
 19 20  1  0
 20 21  2  0
 20 22  1  0
 22 23  1  0
 22 24  1  0
 24 25  1  0
 25 26  2  0
 25 27  1  0
 27 28  1  0
 28 29  1  0
 29 30  2  0
 29 31  1  0
 31 32  1  0
 32 33  1  0
 33 34  2  0
 33 35  1  0
 35 36  1  0
 36 37  1  0
 37 38  2  0
 37 39  1  0
 39 40  1  0
 40 41  1  0
 41 42  2  0
 39 43  1  0
 43 44  1  0
 44 45  2  0
 45 46  1  0
 46 47  2  0
 47 48  1  0
 35 49  1  0
 49 50  1  0
 50 51  2  0
 51 52  1  0
 52 53  2  0
 53 54  1  0
 54 55  2  0
 31 56  1  0
 56 57  1  0
 57 58  1  0
 58 59  1  0
 59 60  2  3
 60 61  1  0
 60 62  1  0
 27 63  1  0
 63 64  1  0
 64 65  2  0
 65 66  1  0
 66 67  1  0
 67 68  2  0
 68 69  1  0
 69 70  2  0
 70 71  1  0
 71 72  2  0
 18 73  1  0
 73 74  2  0
 73 75  1  0
  5 76  1  0
 76 77  1  0
 77 78  2  0
 77 79  1  0
 41  9  1  0
 48 44  1  0
 55 50  1  0
 68 64  1  0
 72 67  1  0
  1 80  1  0
  1 81  1  0
  1 82  1  0
  2 83  1  0
  2 84  1  0
  3 85  1  0
  3 86  1  0
  4 87  1  0
  4 88  1  0
  5 89  1  1
  8 90  1  0
  9 91  1  1
 10 92  1  0
 10 93  1  0
 13 94  1  0
 14 95  1  0
 14 96  1  0
 15 97  1  0
 15 98  1  0
 16 99  1  0
 16100  1  0
 17101  1  0
 17102  1  0
 18103  1  1
 19104  1  0
 22105  1  6
 23106  1  0
 23107  1  0
 23108  1  0
 24109  1  0
 27110  1  6
 28111  1  0
 31112  1  6
 32113  1  0
 35114  1  1
 36115  1  0
 39116  1  6
 40117  1  0
 43118  1  0
 43119  1  0
 45120  1  0
 47121  1  0
 48122  1  0
 49123  1  0
 49124  1  0
 51125  1  0
 52126  1  0
 53127  1  0
 54128  1  0
 55129  1  0
 56130  1  0
 56131  1  0
 57132  1  0
 57133  1  0
 58134  1  0
 58135  1  0
 61136  1  0
 61137  1  0
 62138  1  0
 62139  1  0
 63140  1  0
 63141  1  0
 65142  1  0
 66143  1  0
 69144  1  0
 70145  1  0
 71146  1  0
 72147  1  0
 75148  1  0
 75149  1  0
 76150  1  0
 79151  1  0
 79152  1  0
 79153  1  0
M  END
>  <Ligand ID>  (1) 
LIG0001768

>  <Ligand>  (1) 
CHEMBL2115441

>  <SMILES>  (1) 
CCCC[C@@H](C(=O)N[C@H]1CC(=O)NCCCC[C@H](NC(=O)[C@H](C)NC(=O)[C@@H](NC(=O)[C@@H](NC(=O)[C@H](NC(=O)[C@@H](NC1=O)Cc1cnc[nH]1)Cc1ccccc1)CCCN=C(N)N)Cc1c[nH]c2c1cccc2)C(=O)N)NC(=O)C

>  <CID>  (1) 
71461730.0

>  <ChEMBL ID>  (1) 
nan

>  <InChiKey>  (1) 
WZIILWAZGXRRFZ-JYNRXONWSA-N

>  <InChi>  (1) 
InChI=1S/C53H74N16O10/c1-4-5-17-38(63-31(3)70)47(74)69-43-26-44(71)58-21-12-11-19-37(45(54)72)64-46(73)30(2)62-49(76)41(24-33-27-60-36-18-10-9-16-35(33)36)67-48(75)39(20-13-22-59-53(55)56)65-50(77)40(23-32-14-7-6-8-15-32)66-51(78)42(68-52(43)79)25-34-28-57-29-61-34/h6-10,14-16,18,27-30,37-43,60H,4-5,11-13,17,19-26H2,1-3H3,(H2,54,72)(H,57,61)(H,58,71)(H,62,76)(H,63,70)(H,64,73)(H,65,77)(H,66,78)(H,67,75)(H,68,79)(H,69,74)(H4,55,56,59)/t30-,37-,38-,39-,40+,41-,42-,43-/m0/s1

>  <IUPAC Name>  (1) 
(3S,6S,9S,12R,15S,18S,26S)-18-[[(2S)-2-acetamidohexanoyl]amino]-12-benzyl-9-[3-(diaminomethylideneamino)propyl]-15-(1H-imidazol-5-ylmethyl)-6-(1H-indol-3-ylmethyl)-3-methyl-2,5,8,11,14,17,20-heptaoxo-1,4,7,10,13,16,21-heptazacyclohexacosane-26-carboxamide

$$$$
