
     RDKit          3D

111114  0  0  0  0  0  0  0  0999 V2000
   10.0364    0.4730    1.3715 C   0  0  0  0  0  0  0  0  0  0  0  0
   10.2406   -0.1979    0.0263 C   0  0  0  0  0  0  0  0  0  0  0  0
   10.1973   -1.6664    0.1550 C   0  0  0  0  0  0  0  0  0  0  0  0
    9.0019   -2.2771    0.7255 C   0  0  0  0  0  0  0  0  0  0  0  0
    7.6746   -2.1753    0.0831 C   0  0  0  0  0  0  0  0  0  0  0  0
    7.0392   -0.8364   -0.0951 C   0  0  0  0  0  0  0  0  0  0  0  0
    5.6398   -1.0891   -0.7195 C   0  0  0  0  0  0  0  0  0  0  0  0
    4.9485    0.2045   -0.9150 C   0  0  0  0  0  0  0  0  0  0  0  0
    5.5022    1.2925   -0.6081 O   0  0  0  0  0  0  0  0  0  0  0  0
    3.6275    0.1414   -1.4648 N   0  0  0  0  0  0  0  0  0  0  0  0
    2.8525    1.3592   -1.6864 C   0  0  2  0  0  0  0  0  0  0  0  0
    1.6186    1.3326   -0.8632 C   0  0  0  0  0  0  0  0  0  0  0  0
    0.7893    2.2686   -0.8133 O   0  0  0  0  0  0  0  0  0  0  0  0
    1.3684    0.1591   -0.0806 N   0  0  0  0  0  0  0  0  0  0  0  0
    0.1651    0.1017    0.7410 C   0  0  1  0  0  0  0  0  0  0  0  0
   -0.8307   -0.8076    0.1162 C   0  0  0  0  0  0  0  0  0  0  0  0
   -0.4436   -1.3800   -0.9610 O   0  0  0  0  0  0  0  0  0  0  0  0
   -2.1247   -1.0450    0.6455 N   0  0  0  0  0  0  0  0  0  0  0  0
   -2.9513   -1.9797   -0.1387 C   0  0  2  0  0  0  0  0  0  0  0  0
   -4.0871   -1.1455   -0.6625 C   0  0  0  0  0  0  0  0  0  0  0  0
   -4.8497   -1.7453   -1.4869 O   0  0  0  0  0  0  0  0  0  0  0  0
   -4.2967    0.2022   -0.2708 N   0  0  0  0  0  0  0  0  0  0  0  0
   -5.4369    0.9149   -0.8618 C   0  0  2  0  0  0  0  0  0  0  0  0
   -5.1087    2.2529   -1.2644 C   0  0  0  0  0  0  0  0  0  0  0  0
   -5.8200    3.0438   -1.9461 O   0  0  0  0  0  0  0  0  0  0  0  0
   -3.8287    2.7983   -0.8666 N   0  0  0  0  0  0  0  0  0  0  0  0
   -6.5295    0.8408    0.1503 C   0  0  0  0  0  0  0  0  0  0  0  0
   -7.7397    1.5392   -0.2931 C   0  0  0  0  0  0  0  0  0  0  0  0
   -8.7561    0.9102   -1.0014 C   0  0  0  0  0  0  0  0  0  0  0  0
   -9.7079    1.8132   -1.3004 N   0  0  0  0  0  0  0  0  0  0  0  0
   -9.3597    2.9967   -0.8201 C   0  0  0  0  0  0  0  0  0  0  0  0
   -8.1294    2.8566   -0.1826 C   0  0  0  0  0  0  0  0  0  0  0  0
   -7.5581    3.9575    0.4243 C   0  0  0  0  0  0  0  0  0  0  0  0
   -8.1420    5.2021    0.4340 C   0  0  0  0  0  0  0  0  0  0  0  0
   -9.3570    5.3445   -0.1974 C   0  0  0  0  0  0  0  0  0  0  0  0
   -9.9386    4.2500   -0.8071 C   0  0  0  0  0  0  0  0  0  0  0  0
   -3.5985   -2.9389    0.8078 C   0  0  0  0  0  0  0  0  0  0  0  0
   -2.6785   -3.7591    1.6283 C   0  0  0  0  0  0  0  0  0  0  0  0
   -1.7401   -4.6452    0.9010 C   0  0  0  0  0  0  0  0  0  0  0  0
   -2.4792   -5.5917    0.0983 N   0  0  0  0  0  0  0  0  0  0  0  0
   -3.2133   -6.5315    0.5880 C   0  0  0  0  0  0  0  0  0  0  0  0
   -3.3880   -6.7536    1.9807 N   0  0  0  0  0  0  0  0  0  0  0  0
   -3.8677   -7.3722   -0.3872 N   0  0  0  0  0  0  0  0  0  0  0  0
    0.5141   -0.2885    2.1542 C   0  0  0  0  0  0  0  0  0  0  0  0
    1.4482    0.6451    2.7885 C   0  0  0  0  0  0  0  0  0  0  0  0
    2.8144    0.3728    2.6392 C   0  0  0  0  0  0  0  0  0  0  0  0
    3.7861    1.1775    3.1885 C   0  0  0  0  0  0  0  0  0  0  0  0
    3.4143    2.2990    3.9161 C   0  0  0  0  0  0  0  0  0  0  0  0
    2.0646    2.5729    4.0663 C   0  0  0  0  0  0  0  0  0  0  0  0
    1.0792    1.7609    3.5122 C   0  0  0  0  0  0  0  0  0  0  0  0
    2.4475    1.3308   -3.1392 C   0  0  0  0  0  0  0  0  0  0  0  0
    1.6360    2.5095   -3.5177 C   0  0  0  0  0  0  0  0  0  0  0  0
    0.2670    2.6252   -3.4922 C   0  0  0  0  0  0  0  0  0  0  0  0
   -0.0737    3.8614   -3.9297 N   0  0  0  0  0  0  0  0  0  0  0  0
    1.0645    4.5291   -4.2321 C   0  0  0  0  0  0  0  0  0  0  0  0
    2.0870    3.6908   -3.9749 N   0  0  0  0  0  0  0  0  0  0  0  0
   10.8094    0.0434    2.0653 H   0  0  0  0  0  0  0  0  0  0  0  0
   10.2699    1.5512    1.2431 H   0  0  0  0  0  0  0  0  0  0  0  0
    9.0104    0.3604    1.7494 H   0  0  0  0  0  0  0  0  0  0  0  0
   11.3494    0.0419   -0.2212 H   0  0  0  0  0  0  0  0  0  0  0  0
    9.6641    0.2646   -0.7548 H   0  0  0  0  0  0  0  0  0  0  0  0
   10.3487   -2.0994   -0.8893 H   0  0  0  0  0  0  0  0  0  0  0  0
   11.0886   -1.9935    0.7802 H   0  0  0  0  0  0  0  0  0  0  0  0
    9.2328   -3.3979    0.8549 H   0  0  0  0  0  0  0  0  0  0  0  0
    8.9125   -1.9521    1.8310 H   0  0  0  0  0  0  0  0  0  0  0  0
    6.9078   -2.8155    0.6475 H   0  0  0  0  0  0  0  0  0  0  0  0
    7.6727   -2.7258   -0.9279 H   0  0  0  0  0  0  0  0  0  0  0  0
    7.5760   -0.1710   -0.7964 H   0  0  0  0  0  0  0  0  0  0  0  0
    6.8577   -0.3011    0.8423 H   0  0  0  0  0  0  0  0  0  0  0  0
    5.0736   -1.7166   -0.0245 H   0  0  0  0  0  0  0  0  0  0  0  0
    5.8161   -1.6579   -1.6439 H   0  0  0  0  0  0  0  0  0  0  0  0
    3.1645   -0.7500   -1.7286 H   0  0  0  0  0  0  0  0  0  0  0  0
    3.4363    2.2597   -1.4256 H   0  0  0  0  0  0  0  0  0  0  0  0
    2.0003   -0.6640   -0.0619 H   0  0  0  0  0  0  0  0  0  0  0  0
   -0.3137    1.0912    0.7572 H   0  0  0  0  0  0  0  0  0  0  0  0
   -2.4459   -0.5910    1.5108 H   0  0  0  0  0  0  0  0  0  0  0  0
   -2.3904   -2.4091   -0.9649 H   0  0  0  0  0  0  0  0  0  0  0  0
   -3.6523    0.6541    0.4148 H   0  0  0  0  0  0  0  0  0  0  0  0
   -5.6989    0.2897   -1.7688 H   0  0  0  0  0  0  0  0  0  0  0  0
   -3.7724    3.4962   -0.0755 H   0  0  0  0  0  0  0  0  0  0  0  0
   -2.9431    2.5306   -1.3320 H   0  0  0  0  0  0  0  0  0  0  0  0
   -6.7757   -0.2400    0.4007 H   0  0  0  0  0  0  0  0  0  0  0  0
   -6.1293    1.2628    1.1157 H   0  0  0  0  0  0  0  0  0  0  0  0
   -8.8065   -0.1517   -1.2882 H   0  0  0  0  0  0  0  0  0  0  0  0
  -10.5870    1.6171   -1.8297 H   0  0  0  0  0  0  0  0  0  0  0  0
   -6.6032    3.7933    0.9059 H   0  0  0  0  0  0  0  0  0  0  0  0
   -7.6902    6.0568    0.9118 H   0  0  0  0  0  0  0  0  0  0  0  0
   -9.8420    6.2989   -0.2124 H   0  0  0  0  0  0  0  0  0  0  0  0
  -10.9039    4.3219   -1.3193 H   0  0  0  0  0  0  0  0  0  0  0  0
   -4.2567   -2.3205    1.4704 H   0  0  0  0  0  0  0  0  0  0  0  0
   -4.2920   -3.5716    0.2047 H   0  0  0  0  0  0  0  0  0  0  0  0
   -2.1581   -3.0664    2.3506 H   0  0  0  0  0  0  0  0  0  0  0  0
   -3.3035   -4.4011    2.2850 H   0  0  0  0  0  0  0  0  0  0  0  0
   -1.2276   -5.2764    1.6868 H   0  0  0  0  0  0  0  0  0  0  0  0
   -0.9377   -4.1473    0.3593 H   0  0  0  0  0  0  0  0  0  0  0  0
   -2.6040   -6.6640    2.6814 H   0  0  0  0  0  0  0  0  0  0  0  0
   -4.3715   -7.0187    2.2737 H   0  0  0  0  0  0  0  0  0  0  0  0
   -3.3347   -8.1546   -0.8582 H   0  0  0  0  0  0  0  0  0  0  0  0
   -4.8700   -7.1816   -0.6059 H   0  0  0  0  0  0  0  0  0  0  0  0
    1.0046   -1.2985    2.1264 H   0  0  0  0  0  0  0  0  0  0  0  0
   -0.4165   -0.4552    2.7425 H   0  0  0  0  0  0  0  0  0  0  0  0
    3.1190   -0.5043    2.0702 H   0  0  0  0  0  0  0  0  0  0  0  0
    4.8432    0.9784    3.0805 H   0  0  0  0  0  0  0  0  0  0  0  0
    4.1899    2.9375    4.3507 H   0  0  0  0  0  0  0  0  0  0  0  0
    1.7796    3.4593    4.6416 H   0  0  0  0  0  0  0  0  0  0  0  0
    0.0188    1.9706    3.6267 H   0  0  0  0  0  0  0  0  0  0  0  0
    3.3286    1.2020   -3.8085 H   0  0  0  0  0  0  0  0  0  0  0  0
    1.8024    0.4416   -3.3442 H   0  0  0  0  0  0  0  0  0  0  0  0
   -0.4848    1.9086   -3.1961 H   0  0  0  0  0  0  0  0  0  0  0  0
    1.1497    5.5579   -4.6137 H   0  0  0  0  0  0  0  0  0  0  0  0
    3.0949    3.9029   -4.1030 H   0  0  0  0  0  0  0  0  0  0  0  0
  1  2  1  0
  2  3  1  0
  3  4  1  0
  4  5  1  0
  5  6  1  0
  6  7  1  0
  7  8  1  0
  8  9  2  0
  8 10  1  0
 10 11  1  0
 11 12  1  0
 12 13  2  0
 12 14  1  0
 14 15  1  0
 15 16  1  0
 16 17  2  0
 16 18  1  0
 18 19  1  0
 19 20  1  0
 20 21  2  0
 20 22  1  0
 22 23  1  0
 23 24  1  0
 24 25  2  0
 24 26  1  0
 23 27  1  0
 27 28  1  0
 28 29  2  0
 29 30  1  0
 30 31  1  0
 31 32  2  0
 32 33  1  0
 33 34  2  0
 34 35  1  0
 35 36  2  0
 19 37  1  0
 37 38  1  0
 38 39  1  0
 39 40  1  0
 40 41  2  3
 41 42  1  0
 41 43  1  0
 15 44  1  0
 44 45  1  0
 45 46  2  0
 46 47  1  0
 47 48  2  0
 48 49  1  0
 49 50  2  0
 11 51  1  0
 51 52  1  0
 52 53  2  0
 53 54  1  0
 54 55  2  0
 55 56  1  0
 32 28  1  0
 50 45  1  0
 56 52  1  0
 36 31  1  0
  1 57  1  0
  1 58  1  0
  1 59  1  0
  2 60  1  0
  2 61  1  0
  3 62  1  0
  3 63  1  0
  4 64  1  0
  4 65  1  0
  5 66  1  0
  5 67  1  0
  6 68  1  0
  6 69  1  0
  7 70  1  0
  7 71  1  0
 10 72  1  0
 11 73  1  6
 14 74  1  0
 15 75  1  1
 18 76  1  0
 19 77  1  6
 22 78  1  0
 23 79  1  6
 26 80  1  0
 26 81  1  0
 27 82  1  0
 27 83  1  0
 29 84  1  0
 30 85  1  0
 33 86  1  0
 34 87  1  0
 35 88  1  0
 36 89  1  0
 37 90  1  0
 37 91  1  0
 38 92  1  0
 38 93  1  0
 39 94  1  0
 39 95  1  0
 42 96  1  0
 42 97  1  0
 43 98  1  0
 43 99  1  0
 44100  1  0
 44101  1  0
 46102  1  0
 47103  1  0
 48104  1  0
 49105  1  0
 50106  1  0
 51107  1  0
 51108  1  0
 53109  1  0
 55110  1  0
 56111  1  0
M  END
>  <Ligand ID>  (1) 
LIG0001878

>  <Ligand>  (1) 
CHEMBL191303

>  <SMILES>  (1) 
CCCCCCCC(=O)N[C@H](C(=O)N[C@@H](C(=O)N[C@H](C(=O)N[C@H](C(=O)N)Cc1c[nH]c2c1cccc2)CCCN=C(N)N)Cc1ccccc1)Cc1cnc[nH]1

>  <CID>  (1) 
10078903.0

>  <ChEMBL ID>  (1) 
nan

>  <InChiKey>  (1) 
HEAWAGYKTOLXON-HVRNLMOBSA-N

>  <InChi>  (1) 
InChI=1S/C40H55N11O5/c1-2-3-4-5-9-18-35(52)48-34(22-28-24-44-25-47-28)39(56)51-33(20-26-13-7-6-8-14-26)38(55)49-31(17-12-19-45-40(42)43)37(54)50-32(36(41)53)21-27-23-46-30-16-11-10-15-29(27)30/h6-8,10-11,13-16,23-25,31-34,46H,2-5,9,12,17-22H2,1H3,(H2,41,53)(H,44,47)(H,48,52)(H,49,55)(H,50,54)(H,51,56)(H4,42,43,45)/t31-,32-,33+,34-/m0/s1

>  <IUPAC Name>  (1) 
N-[(2S)-1-[[(2R)-1-[[(2S)-1-[[(2S)-1-amino-3-(1H-indol-3-yl)-1-oxopropan-2-yl]amino]-5-(diaminomethylideneamino)-1-oxopentan-2-yl]amino]-1-oxo-3-phenylpropan-2-yl]amino]-3-(1H-imidazol-5-yl)-1-oxopropan-2-yl]octanamide

$$$$
