
     RDKit          3D

 70 74  0  0  0  0  0  0  0  0999 V2000
    4.3364   -5.5769    0.2431 C   0  0  0  0  0  0  0  0  0  0  0  0
    4.9614   -4.6507   -0.6127 N   0  0  0  0  0  0  0  0  0  0  0  0
    5.5737   -3.5062   -0.0796 C   0  0  0  0  0  0  0  0  0  0  0  0
    4.5245   -2.5596    0.4772 C   0  0  0  0  0  0  0  0  0  0  0  0
    3.6188   -2.2067   -0.6820 C   0  0  0  0  0  0  0  0  0  0  0  0
    2.5618   -1.2518   -0.2579 N   0  0  0  0  0  0  0  0  0  0  0  0
    1.3569   -1.7808    0.2247 C   0  0  0  0  0  0  0  0  0  0  0  0
    1.2579   -3.0553    0.2083 O   0  0  0  0  0  0  0  0  0  0  0  0
    0.2108   -1.0756    0.7423 C   0  0  0  0  0  0  0  0  0  0  0  0
   -0.8097   -1.8403    1.2931 C   0  0  0  0  0  0  0  0  0  0  0  0
   -1.9572   -1.2476    1.8285 C   0  0  0  0  0  0  0  0  0  0  0  0
   -2.1200    0.1172    1.8299 C   0  0  0  0  0  0  0  0  0  0  0  0
   -1.1108    0.8909    1.2827 C   0  0  0  0  0  0  0  0  0  0  0  0
    0.0308    0.2804    0.7518 C   0  0  0  0  0  0  0  0  0  0  0  0
   -3.5377    0.8846    2.5058 S   0  0  0  0  0  0  0  0  0  0  0  0
   -4.0602    0.0294    3.6440 O   0  0  0  0  0  0  0  0  0  0  0  0
   -3.1813    2.2039    3.1358 O   0  0  0  0  0  0  0  0  0  0  0  0
   -4.7308    1.0033    1.3215 N   0  0  0  0  0  0  0  0  0  0  0  0
   -4.4404    1.7690    0.1721 C   0  0  0  0  0  0  0  0  0  0  0  0
   -5.6014    2.1937   -0.6524 C   0  0  0  0  0  0  0  0  0  0  0  0
   -6.7962    1.4031   -0.3686 C   0  0  0  0  0  0  0  0  0  0  0  0
   -6.8893    0.3333    0.4761 C   0  0  0  0  0  0  0  0  0  0  0  0
   -5.6459   -0.0704    1.1975 C   0  0  0  0  0  0  0  0  0  0  0  0
   -8.0869   -0.3261    0.6451 C   0  0  0  0  0  0  0  0  0  0  0  0
   -9.2512    0.0412   -0.0131 C   0  0  0  0  0  0  0  0  0  0  0  0
   -9.1607    1.1177   -0.8634 C   0  0  0  0  0  0  0  0  0  0  0  0
   -7.9706    1.7718   -1.0308 C   0  0  0  0  0  0  0  0  0  0  0  0
    2.9264    0.0979   -0.4028 C   0  0  0  0  0  0  0  0  0  0  0  0
    2.9348    1.0212   -1.2248 N   0  0  0  0  0  0  0  0  0  0  0  0
    3.3717    2.2319   -1.0639 C   0  0  0  0  0  0  0  0  0  0  0  0
    3.8975    2.5130    0.2096 C   0  0  0  0  0  0  0  0  0  0  0  0
    3.7145    0.9805    1.0837 S   0  0  0  0  0  0  0  0  0  0  0  0
    4.4063    3.7446    0.5459 C   0  0  0  0  0  0  0  0  0  0  0  0
    4.4234    4.7858   -0.3775 C   0  0  0  0  0  0  0  0  0  0  0  0
    3.9034    4.4896   -1.6184 C   0  0  0  0  0  0  0  0  0  0  0  0
    3.3930    3.2921   -1.9900 C   0  0  0  0  0  0  0  0  0  0  0  0
    4.9803    6.1090   -0.0071 C   0  0  0  0  0  0  0  0  0  0  0  0
    5.2449   -5.0259   -1.9430 C   0  0  0  0  0  0  0  0  0  0  0  0
    4.5068   -6.6370   -0.0610 H   0  0  0  0  0  0  0  0  0  0  0  0
    3.2255   -5.4287    0.1793 H   0  0  0  0  0  0  0  0  0  0  0  0
    4.6347   -5.4146    1.2999 H   0  0  0  0  0  0  0  0  0  0  0  0
    6.0544   -2.9464   -0.9271 H   0  0  0  0  0  0  0  0  0  0  0  0
    6.3246   -3.7662    0.6984 H   0  0  0  0  0  0  0  0  0  0  0  0
    4.9754   -1.6868    0.9550 H   0  0  0  0  0  0  0  0  0  0  0  0
    3.9217   -3.1544    1.2139 H   0  0  0  0  0  0  0  0  0  0  0  0
    4.2302   -1.7780   -1.4854 H   0  0  0  0  0  0  0  0  0  0  0  0
    3.0849   -3.1269   -0.9867 H   0  0  0  0  0  0  0  0  0  0  0  0
   -0.7901   -2.9154    1.3465 H   0  0  0  0  0  0  0  0  0  0  0  0
   -2.7589   -1.8305    2.2625 H   0  0  0  0  0  0  0  0  0  0  0  0
   -1.2482    1.9547    1.2883 H   0  0  0  0  0  0  0  0  0  0  0  0
    0.7629    0.9292    0.3525 H   0  0  0  0  0  0  0  0  0  0  0  0
   -3.6425    1.3165   -0.4594 H   0  0  0  0  0  0  0  0  0  0  0  0
   -3.9577    2.7297    0.5405 H   0  0  0  0  0  0  0  0  0  0  0  0
   -5.8434    3.2725   -0.5303 H   0  0  0  0  0  0  0  0  0  0  0  0
   -5.3341    2.0850   -1.7281 H   0  0  0  0  0  0  0  0  0  0  0  0
   -5.2487   -0.9859    0.7044 H   0  0  0  0  0  0  0  0  0  0  0  0
   -5.9793   -0.3945    2.2197 H   0  0  0  0  0  0  0  0  0  0  0  0
   -8.1338   -1.1851    1.3320 H   0  0  0  0  0  0  0  0  0  0  0  0
  -10.1731   -0.5151    0.1585 H   0  0  0  0  0  0  0  0  0  0  0  0
  -10.0272    1.4339   -1.3886 H   0  0  0  0  0  0  0  0  0  0  0  0
   -7.9661    2.6148   -1.7192 H   0  0  0  0  0  0  0  0  0  0  0  0
    4.7891    3.8538    1.5540 H   0  0  0  0  0  0  0  0  0  0  0  0
    3.9107    5.2960   -2.3461 H   0  0  0  0  0  0  0  0  0  0  0  0
    3.0092    3.1661   -2.9925 H   0  0  0  0  0  0  0  0  0  0  0  0
    6.0602    6.1059   -0.3290 H   0  0  0  0  0  0  0  0  0  0  0  0
    4.9971    6.2431    1.0824 H   0  0  0  0  0  0  0  0  0  0  0  0
    4.4694    6.9182   -0.5603 H   0  0  0  0  0  0  0  0  0  0  0  0
    4.5081   -5.7904   -2.2684 H   0  0  0  0  0  0  0  0  0  0  0  0
    6.2991   -5.3628   -2.1095 H   0  0  0  0  0  0  0  0  0  0  0  0
    5.0605   -4.1321   -2.6022 H   0  0  0  0  0  0  0  0  0  0  0  0
  1  2  1  0
  2  3  1  0
  3  4  1  0
  4  5  1  0
  5  6  1  0
  6  7  1  0
  7  8  2  0
  7  9  1  0
  9 10  2  0
 10 11  1  0
 11 12  2  0
 12 13  1  0
 13 14  2  0
 12 15  1  0
 15 16  2  0
 15 17  2  0
 15 18  1  0
 18 19  1  0
 19 20  1  0
 20 21  1  0
 21 22  2  0
 22 23  1  0
 22 24  1  0
 24 25  2  0
 25 26  1  0
 26 27  2  0
  6 28  1  0
 28 29  2  0
 29 30  1  0
 30 31  2  0
 31 32  1  0
 31 33  1  0
 33 34  2  0
 34 35  1  0
 35 36  2  0
 34 37  1  0
  2 38  1  0
 14  9  1  0
 23 18  1  0
 32 28  1  0
 27 21  1  0
 36 30  1  0
  1 39  1  0
  1 40  1  0
  1 41  1  0
  3 42  1  0
  3 43  1  0
  4 44  1  0
  4 45  1  0
  5 46  1  0
  5 47  1  0
 10 48  1  0
 11 49  1  0
 13 50  1  0
 14 51  1  0
 19 52  1  0
 19 53  1  0
 20 54  1  0
 20 55  1  0
 23 56  1  0
 23 57  1  0
 24 58  1  0
 25 59  1  0
 26 60  1  0
 27 61  1  0
 33 62  1  0
 35 63  1  0
 36 64  1  0
 37 65  1  0
 37 66  1  0
 37 67  1  0
 38 68  1  0
 38 69  1  0
 38 70  1  0
M  END
>  <Ligand ID>  (1) 
LIG0003898

>  <Ligand>  (1) 
MLS001239478

>  <SMILES>  (1) 
CN(CCCN(C(=O)c1ccc(cc1)S(=O)(=O)N1CCc2c(C1)cccc2)c1nc2c(s1)cc(cc2)C)C

>  <CID>  (1) 
24892627.0

>  <ChEMBL ID>  (1) 
nan

>  <InChiKey>  (1) 
AVOROEGEYAGDGQ-UHFFFAOYSA-N

>  <InChi>  (1) 
InChI=1S/C29H32N4O3S2/c1-21-9-14-26-27(19-21)37-29(30-26)33(17-6-16-31(2)3)28(34)23-10-12-25(13-11-23)38(35,36)32-18-15-22-7-4-5-8-24(22)20-32/h4-5,7-14,19H,6,15-18,20H2,1-3H3

>  <IUPAC Name>  (1) 
4-(3,4-dihydro-1H-isoquinolin-2-ylsulfonyl)-N-[3-(dimethylamino)propyl]-N-(6-methyl-1,3-benzothiazol-2-yl)benzamide

$$$$
