
     RDKit          3D

 42 45  0  0  0  0  0  0  0  0999 V2000
    1.0007    0.5413    1.5441 O   0  0  0  0  0  0  0  0  0  0  0  0
    1.0892    0.0917    0.3787 C   0  0  0  0  0  0  0  0  0  0  0  0
    2.3172   -0.1970   -0.2583 N   0  0  0  0  0  0  0  0  0  0  0  0
    3.6016   -0.0325    0.2931 C   0  0  0  0  0  0  0  0  0  0  0  0
    3.8889    0.4366    1.5452 C   0  0  0  0  0  0  0  0  0  0  0  0
    5.1532    0.5731    2.0217 N   0  0  0  0  0  0  0  0  0  0  0  0
    6.2022    0.2414    1.2553 C   0  0  0  0  0  0  0  0  0  0  0  0
    5.9500   -0.2346   -0.0113 C   0  0  0  0  0  0  0  0  0  0  0  0
    4.6868   -0.3760   -0.5003 C   0  0  0  0  0  0  0  0  0  0  0  0
    7.0049   -0.5827   -0.8199 C   0  0  0  0  0  0  0  0  0  0  0  0
    8.3129   -0.4480   -0.3438 C   0  0  0  0  0  0  0  0  0  0  0  0
    8.5581    0.0273    0.9203 C   0  0  0  0  0  0  0  0  0  0  0  0
    7.4872    0.3794    1.7377 C   0  0  0  0  0  0  0  0  0  0  0  0
    9.6800   -0.8777   -1.3359 Cl  0  0  0  0  0  0  0  0  0  0  0  0
   -0.1985   -0.1373   -0.3414 C   0  0  0  0  0  0  0  0  0  0  0  0
   -1.3691    0.2381    0.5275 C   0  0  0  0  0  0  0  0  0  0  0  0
   -2.6334    0.0010   -0.2116 C   0  0  0  0  0  0  0  0  0  0  0  0
   -2.8158   -0.4597   -1.4319 O   0  0  0  0  0  0  0  0  0  0  0  0
   -4.1049   -0.5180   -1.7064 N   0  0  0  0  0  0  0  0  0  0  0  0
   -4.7990   -0.0835   -0.6381 C   0  0  0  0  0  0  0  0  0  0  0  0
   -3.8767    0.2377    0.2882 N   0  0  0  0  0  0  0  0  0  0  0  0
   -6.2516    0.0162   -0.5158 C   0  0  0  0  0  0  0  0  0  0  0  0
   -7.0325   -0.3664   -1.5882 C   0  0  0  0  0  0  0  0  0  0  0  0
   -8.4109   -0.2549   -1.4279 C   0  0  0  0  0  0  0  0  0  0  0  0
   -8.9637    0.2184   -0.2454 C   0  0  0  0  0  0  0  0  0  0  0  0
   -8.1574    0.5971    0.8195 C   0  0  0  0  0  0  0  0  0  0  0  0
   -6.7906    0.4879    0.6643 C   0  0  0  0  0  0  0  0  0  0  0  0
   -5.7072    0.9464    1.9634 Cl  0  0  0  0  0  0  0  0  0  0  0  0
  -10.3064    0.3356   -0.0670 F   0  0  0  0  0  0  0  0  0  0  0  0
    2.2310   -0.5738   -1.2502 H   0  0  0  0  0  0  0  0  0  0  0  0
    3.1058    0.7239    2.2207 H   0  0  0  0  0  0  0  0  0  0  0  0
    4.5501   -0.7595   -1.5146 H   0  0  0  0  0  0  0  0  0  0  0  0
    6.8330   -0.9590   -1.8185 H   0  0  0  0  0  0  0  0  0  0  0  0
    9.5433    0.1517    1.3384 H   0  0  0  0  0  0  0  0  0  0  0  0
    7.6203    0.7551    2.7313 H   0  0  0  0  0  0  0  0  0  0  0  0
   -0.2646    0.4044   -1.2975 H   0  0  0  0  0  0  0  0  0  0  0  0
   -0.2700   -1.2179   -0.5704 H   0  0  0  0  0  0  0  0  0  0  0  0
   -1.3452   -0.3416    1.4808 H   0  0  0  0  0  0  0  0  0  0  0  0
   -1.2812    1.3217    0.7714 H   0  0  0  0  0  0  0  0  0  0  0  0
   -6.5892   -0.7338   -2.5050 H   0  0  0  0  0  0  0  0  0  0  0  0
   -9.0840   -0.5372   -2.2286 H   0  0  0  0  0  0  0  0  0  0  0  0
   -8.5644    0.9649    1.7406 H   0  0  0  0  0  0  0  0  0  0  0  0
  1  2  2  0
  2  3  1  0
  3  4  1  0
  4  5  2  0
  5  6  1  0
  6  7  2  0
  7  8  1  0
  8  9  2  0
  8 10  1  0
 10 11  2  0
 11 12  1  0
 12 13  2  0
 11 14  1  0
  2 15  1  0
 15 16  1  0
 16 17  1  0
 17 18  1  0
 18 19  1  0
 19 20  2  0
 20 21  1  0
 20 22  1  0
 22 23  2  0
 23 24  1  0
 24 25  2  0
 25 26  1  0
 26 27  2  0
 27 28  1  0
 25 29  1  0
  9  4  1  0
 21 17  2  0
 27 22  1  0
 13  7  1  0
  3 30  1  0
  5 31  1  0
  9 32  1  0
 10 33  1  0
 12 34  1  0
 13 35  1  0
 15 36  1  0
 15 37  1  0
 16 38  1  0
 16 39  1  0
 23 40  1  0
 24 41  1  0
 26 42  1  0
M  END
>  <Ligand ID>  (1) 
LIG0001221

>  <Ligand>  (1) 
CHEMBL526345

>  <SMILES>  (1) 
O=C(Nc1cnc2c(c1)cc(cc2)Cl)CCc1onc(n1)c1ccc(cc1Cl)F

>  <CID>  (1) 
25033940.0

>  <ChEMBL ID>  (1) 
nan

>  <InChiKey>  (1) 
WKGLRZUKOWJGKM-UHFFFAOYSA-N

>  <InChi>  (1) 
InChI=1S/C20H13Cl2FN4O2/c21-12-1-4-17-11(7-12)8-14(10-24-17)25-18(28)5-6-19-26-20(27-29-19)15-3-2-13(23)9-16(15)22/h1-4,7-10H,5-6H2,(H,25,28)

>  <IUPAC Name>  (1) 
3-[3-(2-chloro-4-fluorophenyl)-1,2,4-oxadiazol-5-yl]-N-(6-chloroquinolin-3-yl)propanamide

$$$$
