
     RDKit          3D

 32 31  0  0  0  0  0  0  0  0999 V2000
    4.2195   -0.0217    2.5680 O   0  0  0  0  0  0  0  0  0  0  0  0
    3.7861   -0.2805    1.4465 C   0  0  0  0  0  0  0  0  0  0  0  0
    2.4817    0.2979    0.9624 C   0  0  0  0  0  0  0  0  0  0  0  0
    2.1842   -0.1741   -0.4344 C   0  0  0  0  0  0  0  0  0  0  0  0
    0.8965    0.3894   -0.9327 C   0  0  0  0  0  0  0  0  0  0  0  0
   -0.3143    0.0223   -0.1105 C   0  0  0  0  0  0  0  0  0  0  0  0
   -1.5465    0.6485   -0.7174 C   0  0  0  0  0  0  0  0  0  0  0  0
   -2.8007    0.3395    0.0313 C   0  0  0  0  0  0  0  0  0  0  0  0
   -3.8414    0.9960   -0.6656 O   0  0  0  0  0  0  0  0  0  0  0  0
   -3.1418   -1.1113    0.0996 C   0  0  0  0  0  0  0  0  0  0  0  0
   -2.7806    1.0218    1.3975 C   0  0  0  0  0  0  0  0  0  0  0  0
    3.3054    0.3269   -1.3266 C   0  0  0  0  0  0  0  0  0  0  0  0
    4.3740   -0.9398    0.8157 H   0  0  0  0  0  0  0  0  0  0  0  0
    1.6868   -0.0724    1.6725 H   0  0  0  0  0  0  0  0  0  0  0  0
    2.5437    1.3957    0.9729 H   0  0  0  0  0  0  0  0  0  0  0  0
    2.2024   -1.2985   -0.4664 H   0  0  0  0  0  0  0  0  0  0  0  0
    0.7532   -0.0240   -1.9683 H   0  0  0  0  0  0  0  0  0  0  0  0
    1.0207    1.4857   -1.0413 H   0  0  0  0  0  0  0  0  0  0  0  0
   -0.3963   -1.0760   -0.1324 H   0  0  0  0  0  0  0  0  0  0  0  0
   -0.1554    0.3750    0.9462 H   0  0  0  0  0  0  0  0  0  0  0  0
   -1.6235    0.3403   -1.7595 H   0  0  0  0  0  0  0  0  0  0  0  0
   -1.4271    1.7548   -0.7196 H   0  0  0  0  0  0  0  0  0  0  0  0
   -3.9051    0.5032   -1.5353 H   0  0  0  0  0  0  0  0  0  0  0  0
   -3.8107   -1.4436   -0.7386 H   0  0  0  0  0  0  0  0  0  0  0  0
   -2.2891   -1.7893    0.1420 H   0  0  0  0  0  0  0  0  0  0  0  0
   -3.7913   -1.2476    1.0132 H   0  0  0  0  0  0  0  0  0  0  0  0
   -3.8269    1.3017    1.6839 H   0  0  0  0  0  0  0  0  0  0  0  0
   -2.2197    1.9662    1.3121 H   0  0  0  0  0  0  0  0  0  0  0  0
   -2.3873    0.3094    2.1417 H   0  0  0  0  0  0  0  0  0  0  0  0
    2.8794    0.6520   -2.2946 H   0  0  0  0  0  0  0  0  0  0  0  0
    3.8790    1.1427   -0.8243 H   0  0  0  0  0  0  0  0  0  0  0  0
    4.0449   -0.4852   -1.5379 H   0  0  0  0  0  0  0  0  0  0  0  0
  1  2  2  0
  2  3  1  0
  3  4  1  0
  4  5  1  0
  5  6  1  0
  6  7  1  0
  7  8  1  0
  8  9  1  0
  8 10  1  0
  8 11  1  0
  4 12  1  0
  2 13  1  0
  3 14  1  0
  3 15  1  0
  4 16  1  0
  5 17  1  0
  5 18  1  0
  6 19  1  0
  6 20  1  0
  7 21  1  0
  7 22  1  0
  9 23  1  0
 10 24  1  0
 10 25  1  0
 10 26  1  0
 11 27  1  0
 11 28  1  0
 11 29  1  0
 12 30  1  0
 12 31  1  0
 12 32  1  0
M  END
>  <Ligand ID>  (1) 
LIG0000307

>  <Ligand>  (1) 
Hydroxycitronellal

>  <SMILES>  (1) 
O=CCC(CCCC(O)(C)C)C

>  <CID>  (1) 
7888.0

>  <ChEMBL ID>  (1) 
nan

>  <InChiKey>  (1) 
WPFVBOQKRVRMJB-UHFFFAOYSA-N

>  <InChi>  (1) 
InChI=1S/C10H20O2/c1-9(6-8-11)5-4-7-10(2,3)12/h8-9,12H,4-7H2,1-3H3

>  <IUPAC Name>  (1) 
7-hydroxy-3,7-dimethyloctanal

$$$$
