
     RDKit          3D

 50 54  0  0  0  0  0  0  0  0999 V2000
   -0.3226   -0.8569    0.2951 O   0  0  0  0  0  0  0  0  0  0  0  0
   -0.3023    0.4022    0.1198 C   0  0  0  0  0  0  0  0  0  0  0  0
   -1.5124    1.2154    0.4608 C   0  0  0  0  0  0  0  0  0  0  0  0
   -2.2277    0.8215    1.7015 C   0  0  0  0  0  0  0  0  0  0  0  0
   -2.8609    0.6178    0.3187 C   0  0  0  0  0  0  0  0  0  0  0  0
   -3.9252    1.6215   -0.0068 C   0  0  0  0  0  0  0  0  0  0  0  0
   -4.1012    2.1413   -1.2650 C   0  0  0  0  0  0  0  0  0  0  0  0
   -5.0901    3.0695   -1.5718 C   0  0  0  0  0  0  0  0  0  0  0  0
   -5.9109    3.4523   -0.5106 C   0  0  0  0  0  0  0  0  0  0  0  0
   -5.7475    2.9394    0.7608 C   0  0  0  0  0  0  0  0  0  0  0  0
   -4.7385    2.0068    1.0246 C   0  0  0  0  0  0  0  0  0  0  0  0
   -3.0368   -0.7758   -0.1251 C   0  0  0  0  0  0  0  0  0  0  0  0
   -3.0228   -1.1886   -1.4386 C   0  0  0  0  0  0  0  0  0  0  0  0
   -3.1978   -2.5184   -1.7630 C   0  0  0  0  0  0  0  0  0  0  0  0
   -3.3951   -3.5013   -0.7964 C   0  0  0  0  0  0  0  0  0  0  0  0
   -3.4051   -3.0612    0.5157 C   0  0  0  0  0  0  0  0  0  0  0  0
   -3.2331   -1.7415    0.8681 C   0  0  0  0  0  0  0  0  0  0  0  0
    0.8870    0.9878   -0.4000 N   0  0  0  0  0  0  0  0  0  0  0  0
    1.9617    0.1517   -0.6883 N   0  0  0  0  0  0  0  0  0  0  0  0
    3.1145    0.3757   -0.1513 C   0  0  0  0  0  0  0  0  0  0  0  0
    4.2105   -0.5318   -0.4866 C   0  0  0  0  0  0  0  0  0  0  0  0
    4.1349   -1.6264   -1.3364 C   0  0  0  0  0  0  0  0  0  0  0  0
    5.3616   -2.2213   -1.3951 N   0  0  0  0  0  0  0  0  0  0  0  0
    6.2181   -1.5316   -0.6023 C   0  0  0  0  0  0  0  0  0  0  0  0
    5.5093   -0.4710   -0.0273 C   0  0  0  0  0  0  0  0  0  0  0  0
    6.1291    0.4097    0.8344 C   0  0  0  0  0  0  0  0  0  0  0  0
    7.4792    0.2599    1.1508 C   0  0  0  0  0  0  0  0  0  0  0  0
    8.1815   -0.8029    0.5718 C   0  0  0  0  0  0  0  0  0  0  0  0
    7.5599   -1.6901   -0.2954 C   0  0  0  0  0  0  0  0  0  0  0  0
   -1.3644    2.2969    0.2599 H   0  0  0  0  0  0  0  0  0  0  0  0
   -2.6190    1.6204    2.3502 H   0  0  0  0  0  0  0  0  0  0  0  0
   -1.8659   -0.0500    2.2645 H   0  0  0  0  0  0  0  0  0  0  0  0
   -3.4655    1.8429   -2.0686 H   0  0  0  0  0  0  0  0  0  0  0  0
   -5.2152    3.4692   -2.5688 H   0  0  0  0  0  0  0  0  0  0  0  0
   -6.7179    4.1837   -0.6723 H   0  0  0  0  0  0  0  0  0  0  0  0
   -6.4039    3.2595    1.5632 H   0  0  0  0  0  0  0  0  0  0  0  0
   -4.6315    1.6196    2.0315 H   0  0  0  0  0  0  0  0  0  0  0  0
   -2.8727   -0.4629   -2.2149 H   0  0  0  0  0  0  0  0  0  0  0  0
   -3.1786   -2.7927   -2.8138 H   0  0  0  0  0  0  0  0  0  0  0  0
   -3.5280   -4.5310   -1.0840 H   0  0  0  0  0  0  0  0  0  0  0  0
   -3.5577   -3.8065    1.3112 H   0  0  0  0  0  0  0  0  0  0  0  0
   -3.2573   -1.5023    1.9136 H   0  0  0  0  0  0  0  0  0  0  0  0
    0.8986    2.0218   -0.5414 H   0  0  0  0  0  0  0  0  0  0  0  0
    3.3070    1.1930    0.5274 H   0  0  0  0  0  0  0  0  0  0  0  0
    3.2668   -1.9918   -1.8885 H   0  0  0  0  0  0  0  0  0  0  0  0
    5.6063   -3.0774   -1.9626 H   0  0  0  0  0  0  0  0  0  0  0  0
    5.5483    1.2102    1.2530 H   0  0  0  0  0  0  0  0  0  0  0  0
    7.9427    0.9567    1.8244 H   0  0  0  0  0  0  0  0  0  0  0  0
    9.2429   -0.9123    0.8264 H   0  0  0  0  0  0  0  0  0  0  0  0
    8.1480   -2.5006   -0.7203 H   0  0  0  0  0  0  0  0  0  0  0  0
  1  2  2  0
  2  3  1  0
  3  4  1  0
  4  5  1  0
  5  6  1  0
  6  7  2  0
  7  8  1  0
  8  9  2  0
  9 10  1  0
 10 11  2  0
  5 12  1  0
 12 13  2  0
 13 14  1  0
 14 15  2  0
 15 16  1  0
 16 17  2  0
  2 18  1  0
 18 19  1  0
 19 20  2  0
 20 21  1  0
 21 22  2  0
 22 23  1  0
 23 24  1  0
 24 25  2  0
 25 26  1  0
 26 27  2  0
 27 28  1  0
 28 29  2  0
  5  3  1  0
 11  6  1  0
 17 12  1  0
 25 21  1  0
 29 24  1  0
  3 30  1  0
  4 31  1  0
  4 32  1  0
  7 33  1  0
  8 34  1  0
  9 35  1  0
 10 36  1  0
 11 37  1  0
 13 38  1  0
 14 39  1  0
 15 40  1  0
 16 41  1  0
 17 42  1  0
 18 43  1  0
 20 44  1  0
 22 45  1  0
 23 46  1  0
 26 47  1  0
 27 48  1  0
 28 49  1  0
 29 50  1  0
M  END
>  <Ligand ID>  (1) 
LIG0002853

>  <Ligand>  (1) 
SMR000184430

>  <SMILES>  (1) 
O=C(C1CC1(c1ccccc1)c1ccccc1)N/N=C/c1c[nH]c2c1cccc2

>  <CID>  (1) 
135400412.0

>  <ChEMBL ID>  (1) 
nan

>  <InChiKey>  (1) 
HHLPSPFZUGDXCY-WPWMEQJKSA-N

>  <InChi>  (1) 
InChI=1S/C25H21N3O/c29-24(28-27-17-18-16-26-23-14-8-7-13-21(18)23)22-15-25(22,19-9-3-1-4-10-19)20-11-5-2-6-12-20/h1-14,16-17,22,26H,15H2,(H,28,29)/b27-17+

>  <IUPAC Name>  (1) 
N-[(E)-1H-indol-3-ylmethylideneamino]-2,2-diphenylcyclopropane-1-carboxamide

$$$$
