
     RDKit          3D

 56 60  0  0  0  0  0  0  0  0999 V2000
   -6.0315   -1.4893   -2.1307 C   0  0  0  0  0  0  0  0  0  0  0  0
   -6.1427   -1.2470   -0.6545 C   0  0  2  0  0  0  0  0  0  0  0  0
   -7.5873   -1.1102   -0.2764 C   0  0  0  0  0  0  0  0  0  0  0  0
   -7.6076   -0.1017    0.8244 C   0  0  0  0  0  0  0  0  0  0  0  0
   -6.1526    0.3407    1.0349 C   0  0  0  0  0  0  0  0  0  0  0  0
   -5.5514   -0.0328   -0.2130 N   0  0  0  0  0  0  0  0  0  0  0  0
   -4.1235   -0.0228   -0.2116 C   0  0  0  0  0  0  0  0  0  0  0  0
   -3.5027    1.3231   -0.0898 C   0  0  0  0  0  0  0  0  0  0  0  0
   -2.0255    1.1123   -0.1099 C   0  0  0  0  0  0  0  0  0  0  0  0
   -1.2926    1.1167   -1.2812 C   0  0  0  0  0  0  0  0  0  0  0  0
    0.0890    0.9163   -1.2738 C   0  0  0  0  0  0  0  0  0  0  0  0
    0.7390    0.7072   -0.0527 C   0  0  0  0  0  0  0  0  0  0  0  0
   -0.0109    0.7080    1.0891 C   0  0  0  0  0  0  0  0  0  0  0  0
   -1.3612    0.9040    1.0809 C   0  0  0  0  0  0  0  0  0  0  0  0
    0.6451    0.5005    2.2845 C   0  0  0  0  0  0  0  0  0  0  0  0
    2.0276    0.3006    2.2862 C   0  0  0  0  0  0  0  0  0  0  0  0
    2.7607    0.3044    1.1197 C   0  0  0  0  0  0  0  0  0  0  0  0
    2.0686    0.5122   -0.0223 N   0  0  0  0  0  0  0  0  0  0  0  0
    4.2024    0.0961    1.1034 C   0  0  0  0  0  0  0  0  0  0  0  0
    4.9313   -0.1156    2.2532 C   0  0  0  0  0  0  0  0  0  0  0  0
    6.2757   -0.3102    2.2279 N   0  0  0  0  0  0  0  0  0  0  0  0
    6.9494   -0.3015    1.0477 C   0  0  0  0  0  0  0  0  0  0  0  0
    6.2517   -0.0962   -0.0799 N   0  0  0  0  0  0  0  0  0  0  0  0
    4.9063    0.1020   -0.0896 C   0  0  0  0  0  0  0  0  0  0  0  0
    4.1979    0.3233   -1.3656 C   0  0  0  0  0  0  0  0  0  0  0  0
    7.1111   -0.1304   -1.0860 N   0  0  0  0  0  0  0  0  0  0  0  0
    8.3652   -0.3567   -0.6221 C   0  0  0  0  0  0  0  0  0  0  0  0
    8.2881   -0.4717    0.7621 C   0  0  0  0  0  0  0  0  0  0  0  0
    9.5987   -0.4607   -1.4610 C   0  0  0  0  0  0  0  0  0  0  0  0
   -6.7574   -0.8304   -2.6423 H   0  0  0  0  0  0  0  0  0  0  0  0
   -6.3492   -2.5492   -2.3135 H   0  0  0  0  0  0  0  0  0  0  0  0
   -5.0011   -1.4292   -2.5187 H   0  0  0  0  0  0  0  0  0  0  0  0
   -5.6469   -2.0753   -0.0692 H   0  0  0  0  0  0  0  0  0  0  0  0
   -8.2164   -0.7672   -1.1262 H   0  0  0  0  0  0  0  0  0  0  0  0
   -7.9087   -2.1162    0.0926 H   0  0  0  0  0  0  0  0  0  0  0  0
   -8.2354    0.7650    0.5266 H   0  0  0  0  0  0  0  0  0  0  0  0
   -8.0540   -0.5334    1.7289 H   0  0  0  0  0  0  0  0  0  0  0  0
   -6.1256    1.3986    1.2795 H   0  0  0  0  0  0  0  0  0  0  0  0
   -5.7439   -0.2622    1.8715 H   0  0  0  0  0  0  0  0  0  0  0  0
   -3.7054   -0.6936    0.5533 H   0  0  0  0  0  0  0  0  0  0  0  0
   -3.7981   -0.4358   -1.2045 H   0  0  0  0  0  0  0  0  0  0  0  0
   -3.7053    1.9929   -0.9498 H   0  0  0  0  0  0  0  0  0  0  0  0
   -3.7607    1.7622    0.8784 H   0  0  0  0  0  0  0  0  0  0  0  0
   -1.8183    1.2800   -2.2190 H   0  0  0  0  0  0  0  0  0  0  0  0
    0.6560    0.9240   -2.2119 H   0  0  0  0  0  0  0  0  0  0  0  0
   -1.9116    0.8974    1.9946 H   0  0  0  0  0  0  0  0  0  0  0  0
    0.0627    0.4980    3.1968 H   0  0  0  0  0  0  0  0  0  0  0  0
    2.4762    0.1463    3.2396 H   0  0  0  0  0  0  0  0  0  0  0  0
    4.4693   -0.1365    3.2266 H   0  0  0  0  0  0  0  0  0  0  0  0
    4.9621    0.2629   -2.1944 H   0  0  0  0  0  0  0  0  0  0  0  0
    3.7549    1.3248   -1.4790 H   0  0  0  0  0  0  0  0  0  0  0  0
    3.4942   -0.5141   -1.6149 H   0  0  0  0  0  0  0  0  0  0  0  0
    9.1109   -0.6534    1.4289 H   0  0  0  0  0  0  0  0  0  0  0  0
   10.2912   -1.2075   -1.0528 H   0  0  0  0  0  0  0  0  0  0  0  0
    9.3099   -0.6007   -2.5108 H   0  0  0  0  0  0  0  0  0  0  0  0
   10.1321    0.5323   -1.4225 H   0  0  0  0  0  0  0  0  0  0  0  0
  1  2  1  0
  2  3  1  0
  3  4  1  0
  4  5  1  0
  5  6  1  0
  6  7  1  0
  7  8  1  0
  8  9  1  0
  9 10  2  0
 10 11  1  0
 11 12  2  0
 12 13  1  0
 13 14  2  0
 13 15  1  0
 15 16  2  0
 16 17  1  0
 17 18  2  0
 17 19  1  0
 19 20  1  0
 20 21  2  0
 21 22  1  0
 22 23  1  0
 23 24  1  0
 24 25  1  0
 23 26  1  0
 26 27  2  0
 27 28  1  0
 27 29  1  0
  6  2  1  0
 14  9  1  0
 24 19  2  0
 18 12  1  0
 28 22  2  0
  1 30  1  0
  1 31  1  0
  1 32  1  0
  2 33  1  1
  3 34  1  0
  3 35  1  0
  4 36  1  0
  4 37  1  0
  5 38  1  0
  5 39  1  0
  7 40  1  0
  7 41  1  0
  8 42  1  0
  8 43  1  0
 10 44  1  0
 11 45  1  0
 14 46  1  0
 15 47  1  0
 16 48  1  0
 20 49  1  0
 25 50  1  0
 25 51  1  0
 25 52  1  0
 28 53  1  0
 29 54  1  0
 29 55  1  0
 29 56  1  0
M  END
>  <Ligand ID>  (1) 
LIG0005245

>  <Ligand>  (1) 
CHEMBL392573

>  <SMILES>  (1) 
C[C@@H]1CCCN1CCc1ccc2c(c1)ccc(n2)c1cnc2n(c1C)nc(c2)C

>  <CID>  (1) 
11538251.0

>  <ChEMBL ID>  (1) 
nan

>  <InChiKey>  (1) 
NJPWXCCVGLUPFM-QGZVFWFLSA-N

>  <InChi>  (1) 
InChI=1S/C24H27N5/c1-16-13-24-25-15-21(18(3)29(24)27-16)23-9-7-20-14-19(6-8-22(20)26-23)10-12-28-11-4-5-17(28)2/h6-9,13-15,17H,4-5,10-12H2,1-3H3/t17-/m1/s1

>  <IUPAC Name>  (1) 
2-(2,7-dimethylpyrazolo[1,5-a]pyrimidin-6-yl)-6-[2-[(2R)-2-methylpyrrolidin-1-yl]ethyl]quinoline

$$$$
