
     RDKit          3D

 88 92  0  0  0  0  0  0  0  0999 V2000
   -0.3586    3.6126    4.9204 N   0  0  0  0  0  0  0  0  0  0  0  0
   -0.8149    4.0729    3.6378 C   0  0  0  0  0  0  0  0  0  0  0  0
   -0.5310    3.4583    2.5505 N   0  0  0  0  0  0  0  0  0  0  0  0
   -0.9063    3.7919    1.2282 C   0  0  0  0  0  0  0  0  0  0  0  0
   -1.6936    2.6854    0.5869 C   0  0  0  0  0  0  0  0  0  0  0  0
   -0.9893    1.4484    0.4748 N   0  0  0  0  0  0  0  0  0  0  0  0
   -0.5020    0.6448    1.5201 C   0  0  0  0  0  0  0  0  0  0  0  0
   -0.6436    0.9264    2.7221 O   0  0  0  0  0  0  0  0  0  0  0  0
    0.2425   -0.6410    1.2442 C   0  0  1  0  0  0  0  0  0  0  0  0
   -0.6810   -1.7448    1.8252 C   0  0  0  0  0  0  0  0  0  0  0  0
   -1.6467   -1.8445    0.6618 C   0  0  2  0  0  0  0  0  0  0  0  0
   -0.6540   -2.0498   -0.4600 C   0  0  0  0  0  0  0  0  0  0  0  0
    0.2980   -0.9414   -0.1672 N   0  0  0  0  0  0  0  0  0  0  0  0
    1.0374   -0.3833   -1.2350 C   0  0  0  0  0  0  0  0  0  0  0  0
    0.7082   -0.8824   -2.3951 O   0  0  0  0  0  0  0  0  0  0  0  0
    2.0701    0.6191   -1.2573 C   0  0  2  0  0  0  0  0  0  0  0  0
    2.5652    0.9350    0.0323 N   0  0  0  0  0  0  0  0  0  0  0  0
    3.9601    0.6553    0.2944 C   0  0  0  0  0  0  0  0  0  0  0  0
    4.7218    0.1605   -0.5647 O   0  0  0  0  0  0  0  0  0  0  0  0
    4.5631    0.9538    1.6326 C   0  0  2  0  0  0  0  0  0  0  0  0
    5.2792   -0.2298    2.1985 C   0  0  0  0  0  0  0  0  0  0  0  0
    5.8832    0.0475    3.5258 C   0  0  0  0  0  0  0  0  0  0  0  0
    5.8781    1.1703    4.2625 N   0  0  0  0  0  0  0  0  0  0  0  0
    6.5631    0.9431    5.4133 C   0  0  0  0  0  0  0  0  0  0  0  0
    6.9966   -0.3330    5.3865 N   0  0  0  0  0  0  0  0  0  0  0  0
    6.5915   -0.9028    4.2380 C   0  0  0  0  0  0  0  0  0  0  0  0
    3.6073    1.4321    2.5793 N   0  0  0  0  0  0  0  0  0  0  0  0
    1.7512    1.8458   -2.0859 C   0  0  0  0  0  0  0  0  0  0  0  0
    1.4956    1.5075   -3.5080 C   0  0  0  0  0  0  0  0  0  0  0  0
    2.5320    1.4164   -4.4390 C   0  0  0  0  0  0  0  0  0  0  0  0
    2.2795    1.1145   -5.7626 C   0  0  0  0  0  0  0  0  0  0  0  0
    0.9889    0.8918   -6.2154 C   0  0  0  0  0  0  0  0  0  0  0  0
   -0.0423    0.9766   -5.3174 C   0  0  0  0  0  0  0  0  0  0  0  0
    0.2200    1.2780   -4.0002 C   0  0  0  0  0  0  0  0  0  0  0  0
   -2.4877   -0.8230    0.4993 O   0  0  0  0  0  0  0  0  0  0  0  0
   -3.8283   -0.9818    0.5126 C   0  0  0  0  0  0  0  0  0  0  0  0
   -4.2371   -1.8935   -0.5823 C   0  0  0  0  0  0  0  0  0  0  0  0
   -4.4269   -1.3285   -1.8526 C   0  0  0  0  0  0  0  0  0  0  0  0
   -4.8198   -2.1151   -2.9336 C   0  0  0  0  0  0  0  0  0  0  0  0
   -5.0226   -3.4801   -2.7310 C   0  0  0  0  0  0  0  0  0  0  0  0
   -4.8424   -4.0663   -1.4844 C   0  0  0  0  0  0  0  0  0  0  0  0
   -4.4467   -3.2444   -0.4198 C   0  0  0  0  0  0  0  0  0  0  0  0
   -5.0518   -5.4247   -1.3128 C   0  0  0  0  0  0  0  0  0  0  0  0
   -5.4437   -6.2398   -2.3661 C   0  0  0  0  0  0  0  0  0  0  0  0
   -5.6242   -5.6564   -3.6147 C   0  0  0  0  0  0  0  0  0  0  0  0
   -5.4158   -4.2881   -3.7962 C   0  0  0  0  0  0  0  0  0  0  0  0
   -1.6191    5.2605    3.5449 N   0  0  0  0  0  0  0  0  0  0  0  0
   -0.1585    2.6122    5.1082 H   0  0  0  0  0  0  0  0  0  0  0  0
   -0.2229    4.3251    5.6929 H   0  0  0  0  0  0  0  0  0  0  0  0
    0.0124    3.9761    0.6082 H   0  0  0  0  0  0  0  0  0  0  0  0
   -1.4452    4.7643    1.1951 H   0  0  0  0  0  0  0  0  0  0  0  0
   -2.0170    3.0356   -0.4265 H   0  0  0  0  0  0  0  0  0  0  0  0
   -2.6890    2.5471    1.1234 H   0  0  0  0  0  0  0  0  0  0  0  0
   -0.8049    1.0820   -0.5110 H   0  0  0  0  0  0  0  0  0  0  0  0
    1.1740   -0.7273    1.7902 H   0  0  0  0  0  0  0  0  0  0  0  0
   -1.2332   -1.3337    2.6803 H   0  0  0  0  0  0  0  0  0  0  0  0
   -0.1442   -2.6569    2.0547 H   0  0  0  0  0  0  0  0  0  0  0  0
   -2.2014   -2.7946    0.8200 H   0  0  0  0  0  0  0  0  0  0  0  0
   -0.1302   -3.0207   -0.3774 H   0  0  0  0  0  0  0  0  0  0  0  0
   -1.1384   -1.8597   -1.4141 H   0  0  0  0  0  0  0  0  0  0  0  0
    2.9346    0.1509   -1.8329 H   0  0  0  0  0  0  0  0  0  0  0  0
    2.0618    1.3594    0.8335 H   0  0  0  0  0  0  0  0  0  0  0  0
    5.2847    1.7811    1.4513 H   0  0  0  0  0  0  0  0  0  0  0  0
    4.6137   -1.0931    2.3331 H   0  0  0  0  0  0  0  0  0  0  0  0
    6.1118   -0.5430    1.5168 H   0  0  0  0  0  0  0  0  0  0  0  0
    5.4147    2.0676    3.9857 H   0  0  0  0  0  0  0  0  0  0  0  0
    6.7434    1.6445    6.2259 H   0  0  0  0  0  0  0  0  0  0  0  0
    6.7943   -1.9400    3.9350 H   0  0  0  0  0  0  0  0  0  0  0  0
    2.8967    0.7278    2.8775 H   0  0  0  0  0  0  0  0  0  0  0  0
    3.2108    2.3372    2.2841 H   0  0  0  0  0  0  0  0  0  0  0  0
    0.8806    2.4032   -1.7273 H   0  0  0  0  0  0  0  0  0  0  0  0
    2.6935    2.4502   -2.1134 H   0  0  0  0  0  0  0  0  0  0  0  0
    3.5597    1.5801   -4.1368 H   0  0  0  0  0  0  0  0  0  0  0  0
    3.0792    1.0369   -6.5085 H   0  0  0  0  0  0  0  0  0  0  0  0
    0.7749    0.6585   -7.2381 H   0  0  0  0  0  0  0  0  0  0  0  0
   -1.0669    0.8151   -5.6080 H   0  0  0  0  0  0  0  0  0  0  0  0
   -0.6022    1.3412   -3.3162 H   0  0  0  0  0  0  0  0  0  0  0  0
   -4.4100   -0.0453    0.3951 H   0  0  0  0  0  0  0  0  0  0  0  0
   -4.1539   -1.4786    1.4745 H   0  0  0  0  0  0  0  0  0  0  0  0
   -4.2698   -0.2699   -2.0143 H   0  0  0  0  0  0  0  0  0  0  0  0
   -4.9679   -1.6798   -3.9212 H   0  0  0  0  0  0  0  0  0  0  0  0
   -4.3265   -3.7279    0.5239 H   0  0  0  0  0  0  0  0  0  0  0  0
   -4.9148   -5.8853   -0.3385 H   0  0  0  0  0  0  0  0  0  0  0  0
   -5.6026   -7.3008   -2.2105 H   0  0  0  0  0  0  0  0  0  0  0  0
   -5.9280   -6.2440   -4.4710 H   0  0  0  0  0  0  0  0  0  0  0  0
   -5.5518   -3.8219   -4.7607 H   0  0  0  0  0  0  0  0  0  0  0  0
   -2.6710    5.2136    3.4942 H   0  0  0  0  0  0  0  0  0  0  0  0
   -1.0932    6.1587    3.5321 H   0  0  0  0  0  0  0  0  0  0  0  0
  1  2  1  0
  2  3  2  3
  3  4  1  0
  4  5  1  0
  5  6  1  0
  6  7  1  0
  7  8  2  0
  7  9  1  0
  9 10  1  0
 10 11  1  0
 11 12  1  0
 12 13  1  0
 13 14  1  0
 14 15  2  0
 14 16  1  0
 16 17  1  0
 17 18  1  0
 18 19  2  0
 18 20  1  0
 20 21  1  0
 21 22  1  0
 22 23  1  0
 23 24  1  0
 24 25  2  0
 25 26  1  0
 20 27  1  0
 16 28  1  0
 28 29  1  0
 29 30  2  0
 30 31  1  0
 31 32  2  0
 32 33  1  0
 33 34  2  0
 11 35  1  0
 35 36  1  0
 36 37  1  0
 37 38  2  0
 38 39  1  0
 39 40  2  0
 40 41  1  0
 41 42  2  0
 41 43  1  0
 43 44  2  0
 44 45  1  0
 45 46  2  0
  2 47  1  0
 13  9  1  0
 26 22  2  0
 34 29  1  0
 42 37  1  0
 46 40  1  0
  1 48  1  0
  1 49  1  0
  4 50  1  0
  4 51  1  0
  5 52  1  0
  5 53  1  0
  6 54  1  0
  9 55  1  1
 10 56  1  0
 10 57  1  0
 11 58  1  1
 12 59  1  0
 12 60  1  0
 16 61  1  6
 17 62  1  0
 20 63  1  6
 21 64  1  0
 21 65  1  0
 23 66  1  0
 24 67  1  0
 26 68  1  0
 27 69  1  0
 27 70  1  0
 28 71  1  0
 28 72  1  0
 30 73  1  0
 31 74  1  0
 32 75  1  0
 33 76  1  0
 34 77  1  0
 36 78  1  0
 36 79  1  0
 38 80  1  0
 39 81  1  0
 42 82  1  0
 43 83  1  0
 44 84  1  0
 45 85  1  0
 46 86  1  0
 47 87  1  0
 47 88  1  0
M  END
>  <Ligand ID>  (1) 
LIG0002423

>  <Ligand>  (1) 
CHEMBL209587

>  <SMILES>  (1) 
NC(=NCCNC(=O)[C@H]1C[C@H](CN1C(=O)[C@H](NC(=O)[C@H](Cc1[nH]cnc1)N)Cc1ccccc1)OCc1ccc2c(c1)cccc2)N

>  <CID>  (1) 
44413880.0

>  <ChEMBL ID>  (1) 
nan

>  <InChiKey>  (1) 
DNDWQJKQEQLRTQ-GOGZTAQTSA-N

>  <InChi>  (1) 
InChI=1S/C34H41N9O4/c35-28(16-26-18-38-21-41-26)31(44)42-29(15-22-6-2-1-3-7-22)33(46)43-19-27(17-30(43)32(45)39-12-13-40-34(36)37)47-20-23-10-11-24-8-4-5-9-25(24)14-23/h1-11,14,18,21,27-30H,12-13,15-17,19-20,35H2,(H,38,41)(H,39,45)(H,42,44)(H4,36,37,40)/t27-,28+,29-,30-/m1/s1

>  <IUPAC Name>  (1) 
(2R,4R)-1-[(2R)-2-[[(2S)-2-amino-3-(1H-imidazol-5-yl)propanoyl]amino]-3-phenylpropanoyl]-N-[2-(diaminomethylideneamino)ethyl]-4-(naphthalen-2-ylmethoxy)pyrrolidine-2-carboxamide

$$$$
