
     RDKit          3D

 38 38  0  0  0  0  0  0  0  0999 V2000
   -2.4049   -2.0303   -0.9348 C   0  0  0  0  0  0  0  0  0  0  0  0
   -3.1225   -0.9831   -0.1692 C   0  0  0  0  0  0  0  0  0  0  0  0
   -2.2555    0.0302    0.4423 N   0  0  0  0  0  0  0  0  0  0  0  0
   -0.8693    0.0085    0.2554 C   0  0  0  0  0  0  0  0  0  0  0  0
   -0.3996   -0.5502   -0.8874 N   0  0  0  0  0  0  0  0  0  0  0  0
    0.9076   -0.5926   -1.1856 C   0  0  0  0  0  0  0  0  0  0  0  0
    1.3381   -1.1988   -2.4119 N   0  0  0  0  0  0  0  0  0  0  0  0
    1.8430   -0.0637   -0.3335 C   0  0  0  0  0  0  0  0  0  0  0  0
    1.3910    0.4939    0.8055 N   0  0  0  0  0  0  0  0  0  0  0  0
    0.0720    0.5349    1.1041 C   0  0  0  0  0  0  0  0  0  0  0  0
   -0.3709    1.2508    2.6318 Cl  0  0  0  0  0  0  0  0  0  0  0  0
    3.2606   -0.1073   -0.6532 C   0  0  0  0  0  0  0  0  0  0  0  0
    3.5879   -0.6464   -1.7366 O   0  0  0  0  0  0  0  0  0  0  0  0
    4.1741    0.4431    0.2445 N   0  0  0  0  0  0  0  0  0  0  0  0
    5.5584    0.4112   -0.0469 C   0  0  0  0  0  0  0  0  0  0  0  0
    6.1150   -0.0732   -1.0642 N   0  0  0  0  0  0  0  0  0  0  0  0
    6.4203    1.0081    0.9498 N   0  0  0  0  0  0  0  0  0  0  0  0
   -2.9882    1.0438    1.2113 C   0  0  0  0  0  0  0  0  0  0  0  0
   -4.0880    1.6436    0.3315 C   0  0  0  0  0  0  0  0  0  0  0  0
   -3.5193    0.4159    2.4499 C   0  0  0  0  0  0  0  0  0  0  0  0
   -3.1467   -2.8758   -1.0959 H   0  0  0  0  0  0  0  0  0  0  0  0
   -1.5771   -2.5192   -0.3776 H   0  0  0  0  0  0  0  0  0  0  0  0
   -2.1563   -1.7012   -1.9496 H   0  0  0  0  0  0  0  0  0  0  0  0
   -3.8902   -0.5156   -0.7828 H   0  0  0  0  0  0  0  0  0  0  0  0
   -3.6527   -1.4861    0.6786 H   0  0  0  0  0  0  0  0  0  0  0  0
    1.3796   -0.6440   -3.2953 H   0  0  0  0  0  0  0  0  0  0  0  0
    1.6145   -2.2098   -2.4237 H   0  0  0  0  0  0  0  0  0  0  0  0
    3.8200    0.8752    1.1279 H   0  0  0  0  0  0  0  0  0  0  0  0
    5.7736   -0.5327   -1.8844 H   0  0  0  0  0  0  0  0  0  0  0  0
    7.3665    0.5661    1.1258 H   0  0  0  0  0  0  0  0  0  0  0  0
    6.1238    1.8562    1.4884 H   0  0  0  0  0  0  0  0  0  0  0  0
   -2.3740    1.9171    1.4742 H   0  0  0  0  0  0  0  0  0  0  0  0
   -4.9249    0.9400    0.2028 H   0  0  0  0  0  0  0  0  0  0  0  0
   -3.5988    1.9635   -0.6112 H   0  0  0  0  0  0  0  0  0  0  0  0
   -4.4360    2.5671    0.8385 H   0  0  0  0  0  0  0  0  0  0  0  0
   -4.6024    0.1672    2.4024 H   0  0  0  0  0  0  0  0  0  0  0  0
   -3.4158    1.1091    3.3033 H   0  0  0  0  0  0  0  0  0  0  0  0
   -2.9531   -0.5153    2.7438 H   0  0  0  0  0  0  0  0  0  0  0  0
  1  2  1  0
  2  3  1  0
  3  4  1  0
  4  5  2  0
  5  6  1  0
  6  7  1  0
  6  8  2  0
  8  9  1  0
  9 10  2  0
 10 11  1  0
  8 12  1  0
 12 13  2  0
 12 14  1  0
 14 15  1  0
 15 16  2  3
 15 17  1  0
  3 18  1  0
 18 19  1  0
 18 20  1  0
 10  4  1  0
  1 21  1  0
  1 22  1  0
  1 23  1  0
  2 24  1  0
  2 25  1  0
  7 26  1  0
  7 27  1  0
 14 28  1  0
 16 29  1  0
 17 30  1  0
 17 31  1  0
 18 32  1  0
 19 33  1  0
 19 34  1  0
 19 35  1  0
 20 36  1  0
 20 37  1  0
 20 38  1  0
M  END
>  <Ligand ID>  (1) 
LIG0004365

>  <Ligand>  (1) 
CID 135565707

>  <SMILES>  (1) 
CCN(c1nc(N)c(nc1Cl)C(=O)NC(=N)N)C(C)C

>  <CID>  (1) 
135565707.0

>  <ChEMBL ID>  (1) 
nan

>  <InChiKey>  (1) 
QDERNBXNXJCIQK-UHFFFAOYSA-N

>  <InChi>  (1) 
InChI=1S/C11H18ClN7O/c1-4-19(5(2)3)9-7(12)16-6(8(13)17-9)10(20)18-11(14)15/h5H,4H2,1-3H3,(H2,13,17)(H4,14,15,18,20)

>  <IUPAC Name>  (1) 
3-amino-N-carbamimidoyl-6-chloro-5-[ethyl(propan-2-yl)amino]pyrazine-2-carboxamide

$$$$
