
     RDKit          3D

 75 78  0  0  0  0  0  0  0  0999 V2000
   -8.8161   -2.6038    1.3598 O   0  0  0  0  0  0  0  0  0  0  0  0
   -7.9252   -1.9548    0.5013 C   0  0  2  0  0  0  0  0  0  0  0  0
   -6.8167   -1.2843    1.2815 C   0  0  1  0  0  0  0  0  0  0  0  0
   -5.7137   -0.9257    0.3130 C   0  0  0  0  0  0  0  0  0  0  0  0
   -5.1709   -2.0984   -0.1618 O   0  0  0  0  0  0  0  0  0  0  0  0
   -3.9371   -1.7305   -1.2453 P   0  0  0  0  0  0  0  0  0  0  0  0
   -4.5348   -1.1501   -2.5185 O   0  0  0  0  0  0  0  0  0  0  0  0
   -2.9227   -0.5629   -0.5683 O   0  0  0  0  0  0  0  0  0  0  0  0
   -1.5169   -1.3138   -0.0448 P   0  0  0  0  0  0  0  0  0  0  0  0
   -1.7865   -2.5069    0.8359 O   0  0  0  0  0  0  0  0  0  0  0  0
   -0.5295   -0.2418    0.8243 O   0  0  0  0  0  0  0  0  0  0  0  0
    1.0825   -0.6203    0.4530 P   0  0  0  0  0  0  0  0  0  0  0  0
    1.6297    0.2857   -0.6358 O   0  0  0  0  0  0  0  0  0  0  0  0
    2.0974   -0.4674    1.7915 O   0  0  0  0  0  0  0  0  0  0  0  0
    3.4364   -1.4710    1.5647 P   0  0  0  0  0  0  0  0  0  0  0  0
    3.9673   -1.8019    2.9527 O   0  0  0  0  0  0  0  0  0  0  0  0
    4.6526   -0.6064    0.7655 O   0  0  0  0  0  0  0  0  0  0  0  0
    4.9594   -1.1653   -0.4888 C   0  0  0  0  0  0  0  0  0  0  0  0
    6.0534   -0.2876   -1.0769 C   0  0  2  0  0  0  0  0  0  0  0  0
    7.1558   -0.3117   -0.2195 O   0  0  0  0  0  0  0  0  0  0  0  0
    7.9108    0.7565   -0.7571 C   0  0  1  0  0  0  0  0  0  0  0  0
    6.9206    1.8689   -0.6832 C   0  0  2  0  0  0  0  0  0  0  0  0
    5.6284    1.1597   -1.1111 C   0  0  1  0  0  0  0  0  0  0  0  0
    5.2306    1.5336   -2.3896 O   0  0  0  0  0  0  0  0  0  0  0  0
    7.1669    2.8311   -1.6508 O   0  0  0  0  0  0  0  0  0  0  0  0
    9.0753    0.8939    0.0555 N   0  0  0  0  0  0  0  0  0  0  0  0
    9.7809   -0.2176    0.3610 C   0  0  0  0  0  0  0  0  0  0  0  0
   10.9201   -0.1819    1.1405 C   0  0  0  0  0  0  0  0  0  0  0  0
   11.3707    1.0331    1.6367 C   0  0  0  0  0  0  0  0  0  0  0  0
   12.4077    1.0699    2.3470 O   0  0  0  0  0  0  0  0  0  0  0  0
   10.6512    2.1302    1.3196 N   0  0  0  0  0  0  0  0  0  0  0  0
    9.5367    2.0586    0.5512 C   0  0  0  0  0  0  0  0  0  0  0  0
    8.9222    3.1031    0.2971 O   0  0  0  0  0  0  0  0  0  0  0  0
    3.0698   -2.8882    0.7517 O   0  0  0  0  0  0  0  0  0  0  0  0
    1.2007   -2.2069   -0.1166 O   0  0  0  0  0  0  0  0  0  0  0  0
   -0.6709   -1.8789   -1.4185 O   0  0  0  0  0  0  0  0  0  0  0  0
   -3.0593   -3.1159   -1.5695 O   0  0  0  0  0  0  0  0  0  0  0  0
   -7.4483   -0.1906    1.8343 O   0  0  0  0  0  0  0  0  0  0  0  0
   -8.3791    0.2963    0.9504 C   0  0  2  0  0  0  0  0  0  0  0  0
   -8.5884   -0.7323   -0.1350 C   0  0  2  0  0  0  0  0  0  0  0  0
   -9.9453   -1.0099   -0.3252 O   0  0  0  0  0  0  0  0  0  0  0  0
   -8.0152    1.5946    0.4697 N   0  0  0  0  0  0  0  0  0  0  0  0
   -6.8596    2.2211    0.7611 C   0  0  0  0  0  0  0  0  0  0  0  0
   -6.5974    3.4767    0.2484 C   0  0  0  0  0  0  0  0  0  0  0  0
   -7.5146    4.1308   -0.5815 C   0  0  0  0  0  0  0  0  0  0  0  0
   -7.2873    5.2740   -1.0544 O   0  0  0  0  0  0  0  0  0  0  0  0
   -8.6528    3.4625   -0.8418 N   0  0  0  0  0  0  0  0  0  0  0  0
   -8.9021    2.2389   -0.3388 C   0  0  0  0  0  0  0  0  0  0  0  0
  -10.0036    1.6815   -0.6373 O   0  0  0  0  0  0  0  0  0  0  0  0
   -8.3391   -3.1091    2.0498 H   0  0  0  0  0  0  0  0  0  0  0  0
   -7.4908   -2.6386   -0.2310 H   0  0  0  0  0  0  0  0  0  0  0  0
   -6.4302   -1.9347    2.0914 H   0  0  0  0  0  0  0  0  0  0  0  0
   -4.9539   -0.3075    0.8530 H   0  0  0  0  0  0  0  0  0  0  0  0
   -6.1285   -0.3589   -0.5296 H   0  0  0  0  0  0  0  0  0  0  0  0
    5.3193   -2.2051   -0.3793 H   0  0  0  0  0  0  0  0  0  0  0  0
    4.0504   -1.0695   -1.1175 H   0  0  0  0  0  0  0  0  0  0  0  0
    6.4017   -0.6764   -2.0521 H   0  0  0  0  0  0  0  0  0  0  0  0
    8.1146    0.5529   -1.8251 H   0  0  0  0  0  0  0  0  0  0  0  0
    6.7291    2.2475    0.3208 H   0  0  0  0  0  0  0  0  0  0  0  0
    4.7954    1.3698   -0.4394 H   0  0  0  0  0  0  0  0  0  0  0  0
    4.3544    1.9788   -2.3977 H   0  0  0  0  0  0  0  0  0  0  0  0
    7.1634    2.3647   -2.5233 H   0  0  0  0  0  0  0  0  0  0  0  0
    9.4637   -1.1857   -0.0059 H   0  0  0  0  0  0  0  0  0  0  0  0
   11.4888   -1.0671    1.3884 H   0  0  0  0  0  0  0  0  0  0  0  0
   10.9997    3.0526    1.7006 H   0  0  0  0  0  0  0  0  0  0  0  0
    3.4234   -2.9285   -0.1702 H   0  0  0  0  0  0  0  0  0  0  0  0
    0.7037   -2.7730    0.5324 H   0  0  0  0  0  0  0  0  0  0  0  0
   -0.7370   -2.8587   -1.4878 H   0  0  0  0  0  0  0  0  0  0  0  0
   -3.5305   -3.6307   -2.2911 H   0  0  0  0  0  0  0  0  0  0  0  0
   -9.3540    0.4075    1.4732 H   0  0  0  0  0  0  0  0  0  0  0  0
   -8.0869   -0.5165   -1.0784 H   0  0  0  0  0  0  0  0  0  0  0  0
   -9.9767   -1.9576   -0.6590 H   0  0  0  0  0  0  0  0  0  0  0  0
   -6.1492    1.7302    1.3956 H   0  0  0  0  0  0  0  0  0  0  0  0
   -5.6922    4.0210    0.4487 H   0  0  0  0  0  0  0  0  0  0  0  0
   -9.3716    3.9188   -1.4629 H   0  0  0  0  0  0  0  0  0  0  0  0
  1  2  1  0
  2  3  1  0
  3  4  1  0
  4  5  1  0
  5  6  1  0
  6  7  2  0
  6  8  1  0
  8  9  1  0
  9 10  2  0
  9 11  1  0
 11 12  1  0
 12 13  2  0
 12 14  1  0
 14 15  1  0
 15 16  2  0
 15 17  1  0
 17 18  1  0
 18 19  1  0
 19 20  1  0
 20 21  1  0
 21 22  1  0
 22 23  1  0
 23 24  1  0
 22 25  1  0
 21 26  1  0
 26 27  1  0
 27 28  2  0
 28 29  1  0
 29 30  2  0
 29 31  1  0
 31 32  1  0
 32 33  2  0
 15 34  1  0
 12 35  1  0
  9 36  1  0
  6 37  1  0
  3 38  1  0
 38 39  1  0
 39 40  1  0
 40 41  1  0
 39 42  1  0
 42 43  1  0
 43 44  2  0
 44 45  1  0
 45 46  2  0
 45 47  1  0
 47 48  1  0
 48 49  2  0
 40  2  1  0
 48 42  1  0
 23 19  1  0
 32 26  1  0
  1 50  1  0
  2 51  1  6
  3 52  1  1
  4 53  1  0
  4 54  1  0
 18 55  1  0
 18 56  1  0
 19 57  1  6
 21 58  1  6
 22 59  1  1
 23 60  1  1
 24 61  1  0
 25 62  1  0
 27 63  1  0
 28 64  1  0
 31 65  1  0
 34 66  1  0
 35 67  1  0
 36 68  1  0
 37 69  1  0
 39 70  1  1
 40 71  1  6
 41 72  1  0
 43 73  1  0
 44 74  1  0
 47 75  1  0
M  END
>  <Ligand ID>  (1) 
LIG0002828

>  <Ligand>  (1) 
CHEMBL1207447

>  <SMILES>  (1) 
O[C@@H]1[C@@H](COP(=O)(OP(=O)(OP(=O)(OP(=O)(OC[C@@H]2O[C@@H]([C@H]([C@H]2O)O)n2ccc(=O)[nH]c2=O)O)O)O)O)O[C@H]([C@@H]1O)n1ccc(=O)[nH]c1=O

>  <CID>  (1) 
44457427.0

>  <ChEMBL ID>  (1) 
nan

>  <InChiKey>  (1) 
NMLMACJWHPHKGR-WWMDGMSNSA-N

>  <InChi>  (1) 
InChI=1S/C18H26N4O23P4/c23-9-1-3-21(17(29)19-9)15-13(27)11(25)7(41-15)5-39-46(31,32)43-48(35,36)45-49(37,38)44-47(33,34)40-6-8-12(26)14(28)16(42-8)22-4-2-10(24)20-18(22)30/h1-4,7-8,11-16,25-28H,5-6H2,(H,31,32)(H,33,34)(H,35,36)(H,37,38)(H,19,23,29)(H,20,24,30)/t7-,8+,11-,12+,13-,14+,15-,16+

>  <IUPAC Name>  (1) 
[[(2R,3S,4R,5R)-5-(2,4-dioxopyrimidin-1-yl)-3,4-dihydroxyoxolan-2-yl]methoxy-hydroxyphosphoryl] [[[(2S,3R,4S,5S)-5-(2,4-dioxopyrimidin-1-yl)-3,4-dihydroxyoxolan-2-yl]methoxy-hydroxyphosphoryl]oxy-hydroxyphosphoryl] hydrogen phosphate

$$$$
