
     RDKit          3D

165170  0  0  0  0  0  0  0  0999 V2000
  -11.2588   -6.1052    3.1520 C   0  0  0  0  0  0  0  0  0  0  0  0
  -11.7773   -6.2013    1.8473 N   0  0  0  0  0  0  0  0  0  0  0  0
  -11.7769   -5.4976    0.8259 C   0  0  0  0  0  0  0  0  0  0  0  0
  -11.1923   -4.2267    0.6078 N   0  0  0  0  0  0  0  0  0  0  0  0
  -10.1595   -3.7982    1.5217 C   0  0  0  0  0  0  0  0  0  0  0  0
   -9.5419   -2.4495    1.0949 C   0  0  0  0  0  0  0  0  0  0  0  0
   -8.9603   -2.5801   -0.2677 C   0  0  0  0  0  0  0  0  0  0  0  0
   -8.2710   -1.3146   -0.7393 C   0  0  1  0  0  0  0  0  0  0  0  0
   -9.1979   -0.2163   -0.7993 C   0  0  0  0  0  0  0  0  0  0  0  0
  -10.2863   -0.3719   -1.4093 O   0  0  0  0  0  0  0  0  0  0  0  0
   -9.0086    1.0857   -0.2165 N   0  0  0  0  0  0  0  0  0  0  0  0
  -10.0529    2.1249   -0.3538 C   0  0  2  0  0  0  0  0  0  0  0  0
   -9.9025    2.8443   -1.6101 C   0  0  0  0  0  0  0  0  0  0  0  0
  -10.6776    3.6886   -2.1058 O   0  0  0  0  0  0  0  0  0  0  0  0
   -8.7191    2.5684   -2.4086 N   0  0  0  0  0  0  0  0  0  0  0  0
  -10.1758    2.9501    0.8560 C   0  0  0  0  0  0  0  0  0  0  0  0
  -11.1791    4.0131    0.7539 C   0  0  0  0  0  0  0  0  0  0  0  0
  -12.5107    3.8558    1.1472 C   0  0  0  0  0  0  0  0  0  0  0  0
  -13.1885    5.0054    0.8893 N   0  0  0  0  0  0  0  0  0  0  0  0
  -12.3489    5.9137    0.3416 C   0  0  0  0  0  0  0  0  0  0  0  0
  -11.0988    5.2938    0.2589 C   0  0  0  0  0  0  0  0  0  0  0  0
  -10.0526    6.0572   -0.2640 C   0  0  0  0  0  0  0  0  0  0  0  0
  -10.2853    7.3382   -0.6629 C   0  0  0  0  0  0  0  0  0  0  0  0
  -11.5085    7.9726   -0.5923 C   0  0  0  0  0  0  0  0  0  0  0  0
  -12.5551    7.2141   -0.0704 C   0  0  0  0  0  0  0  0  0  0  0  0
   -7.1039   -1.1165    0.1094 N   0  0  0  0  0  0  0  0  0  0  0  0
   -5.9609   -1.8985   -0.1883 C   0  0  0  0  0  0  0  0  0  0  0  0
   -6.1205   -2.7032   -1.1864 O   0  0  0  0  0  0  0  0  0  0  0  0
   -4.6814   -1.9073    0.4680 C   0  0  1  0  0  0  0  0  0  0  0  0
   -4.4955   -0.6962    1.2903 N   0  0  0  0  0  0  0  0  0  0  0  0
   -3.2026   -0.1424    1.2539 C   0  0  0  0  0  0  0  0  0  0  0  0
   -2.2940   -0.6856    0.5323 O   0  0  0  0  0  0  0  0  0  0  0  0
   -2.7520    1.0141    1.9693 N   0  0  0  0  0  0  0  0  0  0  0  0
   -1.3879    1.3071    1.7423 N   0  0  0  0  0  0  0  0  0  0  0  0
   -0.8751    2.2228    0.8232 C   0  0  0  0  0  0  0  0  0  0  0  0
   -1.7154    2.9033    0.1483 O   0  0  0  0  0  0  0  0  0  0  0  0
    0.5484    2.4807    0.5437 C   0  0  1  0  0  0  0  0  0  0  0  0
    1.4567    1.5959    1.2054 N   0  0  0  0  0  0  0  0  0  0  0  0
    2.8668    1.6440    1.2032 C   0  0  0  0  0  0  0  0  0  0  0  0
    3.4907    2.5179    0.5679 O   0  0  0  0  0  0  0  0  0  0  0  0
    3.5546    0.5627    2.0034 C   0  0  1  0  0  0  0  0  0  0  0  0
    4.8228    0.1688    1.4176 N   0  0  0  0  0  0  0  0  0  0  0  0
    4.7806   -1.0180    0.6312 C   0  0  0  0  0  0  0  0  0  0  0  0
    3.6168   -1.5585    0.5468 O   0  0  0  0  0  0  0  0  0  0  0  0
    5.8334   -1.7018   -0.0874 C   0  0  1  0  0  0  0  0  0  0  0  0
    7.2079   -1.3768    0.1242 N   0  0  0  0  0  0  0  0  0  0  0  0
    7.9400   -0.7742   -0.9549 C   0  0  0  0  0  0  0  0  0  0  0  0
    7.3252   -0.5003   -2.0089 O   0  0  0  0  0  0  0  0  0  0  0  0
    9.3799   -0.5345   -0.7283 C   0  0  1  0  0  0  0  0  0  0  0  0
    9.9744   -1.9643   -0.8408 C   0  0  0  0  0  0  0  0  0  0  0  0
   11.4059   -2.0501   -0.6411 C   0  0  0  0  0  0  0  0  0  0  0  0
   12.3308   -2.1780   -1.6895 C   0  0  0  0  0  0  0  0  0  0  0  0
   13.5840   -2.2376   -1.1606 N   0  0  0  0  0  0  0  0  0  0  0  0
   13.4948   -2.1547    0.1801 C   0  0  0  0  0  0  0  0  0  0  0  0
   12.1577   -2.0387    0.5030 C   0  0  0  0  0  0  0  0  0  0  0  0
   11.7167   -1.9369    1.8265 C   0  0  0  0  0  0  0  0  0  0  0  0
   12.6668   -1.9545    2.8206 C   0  0  0  0  0  0  0  0  0  0  0  0
   13.9974   -2.0702    2.4807 C   0  0  0  0  0  0  0  0  0  0  0  0
   14.4437   -2.1716    1.1748 C   0  0  0  0  0  0  0  0  0  0  0  0
    9.9603    0.2840   -1.7744 N   0  0  0  0  0  0  0  0  0  0  0  0
   11.1624    1.0040   -1.6640 C   0  0  0  0  0  0  0  0  0  0  0  0
   11.8259    0.9625   -0.6108 O   0  0  0  0  0  0  0  0  0  0  0  0
   11.6103    1.8013   -2.8263 C   0  0  1  0  0  0  0  0  0  0  0  0
   11.1937    3.2644   -2.6542 C   0  0  0  0  0  0  0  0  0  0  0  0
   11.8718    3.7360   -1.4172 C   0  0  0  0  0  0  0  0  0  0  0  0
   13.1580    4.2650   -1.5852 C   0  0  0  0  0  0  0  0  0  0  0  0
   13.8873    4.7267   -0.5159 C   0  0  0  0  0  0  0  0  0  0  0  0
   13.3325    4.6657    0.7711 C   0  0  0  0  0  0  0  0  0  0  0  0
   12.0698    4.1392    0.8848 C   0  0  0  0  0  0  0  0  0  0  0  0
   11.3142    3.6712   -0.1584 C   0  0  0  0  0  0  0  0  0  0  0  0
   14.0896    5.1383    1.8206 O   0  0  0  0  0  0  0  0  0  0  0  0
   13.0855    1.8785   -2.8517 N   0  0  0  0  0  0  0  0  0  0  0  0
    5.7213   -3.1981    0.2846 C   0  0  0  0  0  0  0  0  0  0  0  0
    3.7939    1.0941    3.4046 C   0  0  0  0  0  0  0  0  0  0  0  0
    4.6558    2.1981    3.2438 O   0  0  0  0  0  0  0  0  0  0  0  0
    0.7709    2.3165   -0.9809 C   0  0  0  0  0  0  0  0  0  0  0  0
    0.4275    0.9825   -1.4883 C   0  0  0  0  0  0  0  0  0  0  0  0
   -0.8236    0.6566   -1.9976 C   0  0  0  0  0  0  0  0  0  0  0  0
   -1.1253   -0.6198   -2.4763 C   0  0  0  0  0  0  0  0  0  0  0  0
   -0.1777   -1.6053   -2.4569 C   0  0  0  0  0  0  0  0  0  0  0  0
    1.0674   -1.3172   -1.9614 C   0  0  0  0  0  0  0  0  0  0  0  0
    1.3506   -0.0688   -1.4980 C   0  0  0  0  0  0  0  0  0  0  0  0
   -4.4407   -3.0290    1.4665 C   0  0  0  0  0  0  0  0  0  0  0  0
   -4.5091   -4.4099    0.9419 C   0  0  0  0  0  0  0  0  0  0  0  0
   -3.5469   -4.7143   -0.1846 C   0  0  0  0  0  0  0  0  0  0  0  0
   -5.8549   -4.9848    0.6947 C   0  0  0  0  0  0  0  0  0  0  0  0
  -12.4648   -6.0525   -0.3326 N   0  0  0  0  0  0  0  0  0  0  0  0
  -10.1553   -5.9546    3.1622 H   0  0  0  0  0  0  0  0  0  0  0  0
  -11.4314   -7.0572    3.7430 H   0  0  0  0  0  0  0  0  0  0  0  0
  -11.7387   -5.3048    3.7803 H   0  0  0  0  0  0  0  0  0  0  0  0
  -11.5139   -3.6261   -0.2079 H   0  0  0  0  0  0  0  0  0  0  0  0
  -10.5900   -3.6994    2.5173 H   0  0  0  0  0  0  0  0  0  0  0  0
   -9.3286   -4.5364    1.4607 H   0  0  0  0  0  0  0  0  0  0  0  0
   -8.7744   -2.2257    1.8544 H   0  0  0  0  0  0  0  0  0  0  0  0
  -10.3390   -1.7106    1.1534 H   0  0  0  0  0  0  0  0  0  0  0  0
   -8.3092   -3.4510   -0.3986 H   0  0  0  0  0  0  0  0  0  0  0  0
   -9.8729   -2.6921   -0.9600 H   0  0  0  0  0  0  0  0  0  0  0  0
   -7.8834   -1.5361   -1.7925 H   0  0  0  0  0  0  0  0  0  0  0  0
   -8.1212    1.2796    0.3154 H   0  0  0  0  0  0  0  0  0  0  0  0
  -10.9937    1.4900   -0.5115 H   0  0  0  0  0  0  0  0  0  0  0  0
   -8.8362    1.8613   -3.1644 H   0  0  0  0  0  0  0  0  0  0  0  0
   -7.8574    3.0854   -2.1682 H   0  0  0  0  0  0  0  0  0  0  0  0
   -9.1672    3.3773    1.1298 H   0  0  0  0  0  0  0  0  0  0  0  0
  -10.4022    2.2644    1.7141 H   0  0  0  0  0  0  0  0  0  0  0  0
  -12.9581    2.9502    1.5961 H   0  0  0  0  0  0  0  0  0  0  0  0
  -14.2190    5.1734    1.0868 H   0  0  0  0  0  0  0  0  0  0  0  0
   -9.0926    5.5541   -0.3133 H   0  0  0  0  0  0  0  0  0  0  0  0
   -9.4280    7.9034   -1.0652 H   0  0  0  0  0  0  0  0  0  0  0  0
  -11.6645    8.9949   -0.9205 H   0  0  0  0  0  0  0  0  0  0  0  0
  -13.5632    7.6341    0.0245 H   0  0  0  0  0  0  0  0  0  0  0  0
   -7.0511   -0.4590    0.9038 H   0  0  0  0  0  0  0  0  0  0  0  0
   -3.8485   -1.8980   -0.2835 H   0  0  0  0  0  0  0  0  0  0  0  0
   -5.2087   -0.2501    1.8569 H   0  0  0  0  0  0  0  0  0  0  0  0
   -3.4056    1.5215    2.5656 H   0  0  0  0  0  0  0  0  0  0  0  0
   -0.7407    0.7453    2.3723 H   0  0  0  0  0  0  0  0  0  0  0  0
    0.9083    3.5193    0.7325 H   0  0  0  0  0  0  0  0  0  0  0  0
    1.0286    0.8034    1.7549 H   0  0  0  0  0  0  0  0  0  0  0  0
    2.9042   -0.3229    2.0630 H   0  0  0  0  0  0  0  0  0  0  0  0
    5.7223    0.6511    1.5099 H   0  0  0  0  0  0  0  0  0  0  0  0
    5.6003   -1.6848   -1.2077 H   0  0  0  0  0  0  0  0  0  0  0  0
    7.6573   -1.5731    1.0432 H   0  0  0  0  0  0  0  0  0  0  0  0
    9.7024   -0.1911    0.2408 H   0  0  0  0  0  0  0  0  0  0  0  0
    9.4527   -2.5119   -0.0213 H   0  0  0  0  0  0  0  0  0  0  0  0
    9.6082   -2.4681   -1.7740 H   0  0  0  0  0  0  0  0  0  0  0  0
   12.1557   -2.2202   -2.7361 H   0  0  0  0  0  0  0  0  0  0  0  0
   14.4693   -2.3328   -1.7369 H   0  0  0  0  0  0  0  0  0  0  0  0
   10.6721   -1.8479    2.0839 H   0  0  0  0  0  0  0  0  0  0  0  0
   12.4096   -1.8786    3.8660 H   0  0  0  0  0  0  0  0  0  0  0  0
   14.7204   -2.0852    3.2766 H   0  0  0  0  0  0  0  0  0  0  0  0
   15.4692   -2.2678    0.8910 H   0  0  0  0  0  0  0  0  0  0  0  0
    9.3971    0.3214   -2.6813 H   0  0  0  0  0  0  0  0  0  0  0  0
   11.2619    1.3579   -3.7443 H   0  0  0  0  0  0  0  0  0  0  0  0
   11.5891    3.8101   -3.5310 H   0  0  0  0  0  0  0  0  0  0  0  0
   10.1135    3.4132   -2.6170 H   0  0  0  0  0  0  0  0  0  0  0  0
   13.5975    4.3145   -2.5794 H   0  0  0  0  0  0  0  0  0  0  0  0
   14.8981    5.1448   -0.6405 H   0  0  0  0  0  0  0  0  0  0  0  0
   11.6299    4.0892    1.8924 H   0  0  0  0  0  0  0  0  0  0  0  0
   10.3150    3.2577   -0.0573 H   0  0  0  0  0  0  0  0  0  0  0  0
   15.0358    4.8324    2.0184 H   0  0  0  0  0  0  0  0  0  0  0  0
   13.5218    1.1771   -2.2044 H   0  0  0  0  0  0  0  0  0  0  0  0
   13.4576    1.8196   -3.8266 H   0  0  0  0  0  0  0  0  0  0  0  0
    4.7530   -3.6198    0.0159 H   0  0  0  0  0  0  0  0  0  0  0  0
    6.5195   -3.7894   -0.1668 H   0  0  0  0  0  0  0  0  0  0  0  0
    5.9322   -3.2133    1.3948 H   0  0  0  0  0  0  0  0  0  0  0  0
    2.8231    1.4117    3.8303 H   0  0  0  0  0  0  0  0  0  0  0  0
    4.2533    0.3479    4.0581 H   0  0  0  0  0  0  0  0  0  0  0  0
    4.1486    3.0470    3.2747 H   0  0  0  0  0  0  0  0  0  0  0  0
    1.8134    2.5432   -1.2589 H   0  0  0  0  0  0  0  0  0  0  0  0
    0.0993    3.0721   -1.4610 H   0  0  0  0  0  0  0  0  0  0  0  0
   -1.6170    1.3791   -2.0534 H   0  0  0  0  0  0  0  0  0  0  0  0
   -2.1094   -0.8636   -2.8729 H   0  0  0  0  0  0  0  0  0  0  0  0
   -0.3820   -2.5869   -2.8227 H   0  0  0  0  0  0  0  0  0  0  0  0
    1.8003   -2.1251   -1.9548 H   0  0  0  0  0  0  0  0  0  0  0  0
    2.3274    0.1228   -1.1199 H   0  0  0  0  0  0  0  0  0  0  0  0
   -5.2607   -2.8967    2.2251 H   0  0  0  0  0  0  0  0  0  0  0  0
   -3.5134   -2.8234    2.0144 H   0  0  0  0  0  0  0  0  0  0  0  0
   -4.0788   -5.0521    1.8078 H   0  0  0  0  0  0  0  0  0  0  0  0
   -2.5076   -4.4259    0.0388 H   0  0  0  0  0  0  0  0  0  0  0  0
   -3.9035   -4.3207   -1.1518 H   0  0  0  0  0  0  0  0  0  0  0  0
   -3.5401   -5.8324   -0.2877 H   0  0  0  0  0  0  0  0  0  0  0  0
   -6.0205   -5.3621   -0.3119 H   0  0  0  0  0  0  0  0  0  0  0  0
   -6.0277   -5.8658    1.3692 H   0  0  0  0  0  0  0  0  0  0  0  0
   -6.6346   -4.2199    0.9651 H   0  0  0  0  0  0  0  0  0  0  0  0
  -13.5092   -5.9476   -0.3931 H   0  0  0  0  0  0  0  0  0  0  0  0
  -11.8951   -6.5369   -1.0739 H   0  0  0  0  0  0  0  0  0  0  0  0
  1  2  1  0
  2  3  2  3
  3  4  1  0
  4  5  1  0
  5  6  1  0
  6  7  1  0
  7  8  1  0
  8  9  1  0
  9 10  2  0
  9 11  1  0
 11 12  1  0
 12 13  1  0
 13 14  2  0
 13 15  1  0
 12 16  1  0
 16 17  1  0
 17 18  2  0
 18 19  1  0
 19 20  1  0
 20 21  2  0
 21 22  1  0
 22 23  2  0
 23 24  1  0
 24 25  2  0
  8 26  1  0
 26 27  1  0
 27 28  2  0
 27 29  1  0
 29 30  1  0
 30 31  1  0
 31 32  2  0
 31 33  1  0
 33 34  1  0
 34 35  1  0
 35 36  2  0
 35 37  1  0
 37 38  1  0
 38 39  1  0
 39 40  2  0
 39 41  1  0
 41 42  1  0
 42 43  1  0
 43 44  2  0
 43 45  1  0
 45 46  1  0
 46 47  1  0
 47 48  2  0
 47 49  1  0
 49 50  1  0
 50 51  1  0
 51 52  2  0
 52 53  1  0
 53 54  1  0
 54 55  2  0
 55 56  1  0
 56 57  2  0
 57 58  1  0
 58 59  2  0
 49 60  1  0
 60 61  1  0
 61 62  2  0
 61 63  1  0
 63 64  1  0
 64 65  1  0
 65 66  2  0
 66 67  1  0
 67 68  2  0
 68 69  1  0
 69 70  2  0
 68 71  1  0
 63 72  1  0
 45 73  1  0
 41 74  1  0
 74 75  1  0
 37 76  1  0
 76 77  1  0
 77 78  2  0
 78 79  1  0
 79 80  2  0
 80 81  1  0
 81 82  2  0
 29 83  1  0
 83 84  1  0
 84 85  1  0
 84 86  1  0
  3 87  1  0
 21 17  1  0
 55 51  1  0
 70 65  1  0
 82 77  1  0
 25 20  1  0
 59 54  1  0
  1 88  1  0
  1 89  1  0
  1 90  1  0
  4 91  1  0
  5 92  1  0
  5 93  1  0
  6 94  1  0
  6 95  1  0
  7 96  1  0
  7 97  1  0
  8 98  1  6
 11 99  1  0
 12100  1  6
 15101  1  0
 15102  1  0
 16103  1  0
 16104  1  0
 18105  1  0
 19106  1  0
 22107  1  0
 23108  1  0
 24109  1  0
 25110  1  0
 26111  1  0
 29112  1  6
 30113  1  0
 33114  1  0
 34115  1  0
 37116  1  1
 38117  1  0
 41118  1  1
 42119  1  0
 45120  1  6
 46121  1  0
 49122  1  1
 50123  1  0
 50124  1  0
 52125  1  0
 53126  1  0
 56127  1  0
 57128  1  0
 58129  1  0
 59130  1  0
 60131  1  0
 63132  1  6
 64133  1  0
 64134  1  0
 66135  1  0
 67136  1  0
 69137  1  0
 70138  1  0
 71139  1  0
 72140  1  0
 72141  1  0
 73142  1  0
 73143  1  0
 73144  1  0
 74145  1  0
 74146  1  0
 75147  1  0
 76148  1  0
 76149  1  0
 78150  1  0
 79151  1  0
 80152  1  0
 81153  1  0
 82154  1  0
 83155  1  0
 83156  1  0
 84157  1  0
 85158  1  0
 85159  1  0
 85160  1  0
 86161  1  0
 86162  1  0
 86163  1  0
 87164  1  0
 87165  1  0
M  END
>  <Ligand ID>  (1) 
LIG0005163

>  <Ligand>  (1) 
CHEMBL3314220

>  <SMILES>  (1) 
CN=C(NCCC[C@@H](C(=O)N[C@H](C(=O)N)Cc1c[nH]c2c1cccc2)NC(=O)[C@@H](NC(=O)NNC(=O)[C@@H](NC(=O)[C@@H](NC(=O)[C@@H](NC(=O)[C@@H](Cc1c[nH]c2c1cccc2)NC(=O)[C@@H](Cc1ccc(cc1)O)N)C)CO)Cc1ccccc1)CC(C)C)N

>  <CID>  (1) 
118707489.0

>  <ChEMBL ID>  (1) 
nan

>  <InChiKey>  (1) 
GHXYOINLRPYYTQ-SXSYIZOFSA-N

>  <InChi>  (1) 
InChI=1S/C60H78N16O11/c1-33(2)25-47(56(84)69-45(19-12-24-65-59(63)64-4)54(82)70-46(51(62)79)28-37-30-66-43-17-10-8-15-40(37)43)74-60(87)76-75-58(86)48(27-35-13-6-5-7-14-35)72-57(85)50(32-77)73-52(80)34(3)68-55(83)49(29-38-31-67-44-18-11-9-16-41(38)44)71-53(81)42(61)26-36-20-22-39(78)23-21-36/h5-11,13-18,20-23,30-31,33-34,42,45-50,66-67,77-78H,12,19,24-29,32,61H2,1-4H3,(H2,62,79)(H,68,83)(H,69,84)(H,70,82)(H,71,81)(H,72,85)(H,73,80)(H,75,86)(H3,63,64,65)(H2,74,76,87)/t34-,42+,45-,46-,47-,48-,49+,50-/m0/s1

>  <IUPAC Name>  (1) 
(2S)-2-[[[(2S)-2-[[(2S)-2-[[(2S)-2-[[(2R)-2-[[(2R)-2-amino-3-(4-hydroxyphenyl)propanoyl]amino]-3-(1H-indol-3-yl)propanoyl]amino]propanoyl]amino]-3-hydroxypropanoyl]amino]-3-phenylpropanoyl]amino]carbamoylamino]-N-[(2S)-1-[[(2S)-1-amino-3-(1H-indol-3-yl)-1-oxopropan-2-yl]amino]-5-[(N'-methylcarbamimidoyl)amino]-1-oxopentan-2-yl]-4-methylpentanamide

$$$$
