
     RDKit          3D

 49 52  0  0  0  0  0  0  0  0999 V2000
   -2.8011    1.9689    2.7727 N   0  0  0  0  0  0  0  0  0  0  0  0
   -2.6838    1.0868    2.0032 C   0  0  0  0  0  0  0  0  0  0  0  0
   -2.5492    0.0118    1.0468 C   0  0  0  0  0  0  0  0  0  0  0  0
   -1.5012   -0.9124    1.1523 C   0  0  0  0  0  0  0  0  0  0  0  0
   -0.6338   -0.7453    2.1854 O   0  0  0  0  0  0  0  0  0  0  0  0
    0.4725   -1.5527    2.4662 C   0  0  0  0  0  0  0  0  0  0  0  0
    1.4864   -1.6108    1.3942 C   0  0  0  0  0  0  0  0  0  0  0  0
    1.5416   -2.5711    0.4172 C   0  0  0  0  0  0  0  0  0  0  0  0
    2.5323   -2.5266   -0.5515 C   0  0  0  0  0  0  0  0  0  0  0  0
    3.4604   -1.5655   -0.5769 N   0  0  0  0  0  0  0  0  0  0  0  0
    3.4381   -0.5950    0.3769 C   0  0  0  0  0  0  0  0  0  0  0  0
    2.4601   -0.6207    1.3504 C   0  0  0  0  0  0  0  0  0  0  0  0
    4.4253    0.4793    0.4000 C   0  0  0  0  0  0  0  0  0  0  0  0
    4.4100    1.3919    1.2912 O   0  0  0  0  0  0  0  0  0  0  0  0
    5.4517    0.5436   -0.5859 N   0  0  0  0  0  0  0  0  0  0  0  0
    6.4428    1.6292   -0.5558 C   0  0  0  0  0  0  0  0  0  0  0  0
    7.1686    1.9943   -1.7810 C   0  0  0  0  0  0  0  0  0  0  0  0
    7.8586    1.1144   -0.7895 C   0  0  0  0  0  0  0  0  0  0  0  0
   -1.4704   -1.8641    0.2176 N   0  0  0  0  0  0  0  0  0  0  0  0
   -2.3697   -1.9625   -0.7772 C   0  0  0  0  0  0  0  0  0  0  0  0
   -3.4160   -1.0702   -0.9134 C   0  0  0  0  0  0  0  0  0  0  0  0
   -3.4863   -0.0638    0.0375 C   0  0  0  0  0  0  0  0  0  0  0  0
   -4.5639    0.9277   -0.0292 C   0  0  0  0  0  0  0  0  0  0  0  0
   -4.4467    2.1096   -0.7315 C   0  0  0  0  0  0  0  0  0  0  0  0
   -5.5169    2.9760   -0.7327 C   0  0  0  0  0  0  0  0  0  0  0  0
   -6.7000    2.7343   -0.0742 C   0  0  0  0  0  0  0  0  0  0  0  0
   -6.8052    1.5472    0.6256 C   0  0  0  0  0  0  0  0  0  0  0  0
   -5.7441    0.6694    0.6371 C   0  0  0  0  0  0  0  0  0  0  0  0
   -4.3862   -1.1601   -1.9701 C   0  0  0  0  0  0  0  0  0  0  0  0
   -5.1628   -1.2158   -2.8277 N   0  0  0  0  0  0  0  0  0  0  0  0
   -2.2397   -3.0327   -1.7335 N   0  0  0  0  0  0  0  0  0  0  0  0
    0.9354   -1.1908    3.4225 H   0  0  0  0  0  0  0  0  0  0  0  0
    0.1025   -2.5867    2.6982 H   0  0  0  0  0  0  0  0  0  0  0  0
    0.8283   -3.3655    0.3971 H   0  0  0  0  0  0  0  0  0  0  0  0
    2.5653   -3.2859   -1.3137 H   0  0  0  0  0  0  0  0  0  0  0  0
    2.4589    0.1536    2.0945 H   0  0  0  0  0  0  0  0  0  0  0  0
    5.5341   -0.1719   -1.3565 H   0  0  0  0  0  0  0  0  0  0  0  0
    6.3107    2.3537    0.2744 H   0  0  0  0  0  0  0  0  0  0  0  0
    6.9044    1.4892   -2.7355 H   0  0  0  0  0  0  0  0  0  0  0  0
    7.4778    3.0451   -1.9320 H   0  0  0  0  0  0  0  0  0  0  0  0
    8.6318    1.5582   -0.1303 H   0  0  0  0  0  0  0  0  0  0  0  0
    8.0195    0.0434   -1.0323 H   0  0  0  0  0  0  0  0  0  0  0  0
   -3.5233    2.3325   -1.2643 H   0  0  0  0  0  0  0  0  0  0  0  0
   -5.4408    3.9072   -1.2788 H   0  0  0  0  0  0  0  0  0  0  0  0
   -7.5433    3.4040   -0.0680 H   0  0  0  0  0  0  0  0  0  0  0  0
   -7.7057    1.2908    1.1667 H   0  0  0  0  0  0  0  0  0  0  0  0
   -5.8294   -0.2536    1.1827 H   0  0  0  0  0  0  0  0  0  0  0  0
   -3.0337   -3.2495   -2.3718 H   0  0  0  0  0  0  0  0  0  0  0  0
   -1.3640   -3.5889   -1.7924 H   0  0  0  0  0  0  0  0  0  0  0  0
  1  2  3  0
  2  3  1  0
  3  4  2  0
  4  5  1  0
  5  6  1  0
  6  7  1  0
  7  8  2  0
  8  9  1  0
  9 10  2  0
 10 11  1  0
 11 12  2  0
 11 13  1  0
 13 14  2  0
 13 15  1  0
 15 16  1  0
 16 17  1  0
 17 18  1  0
  4 19  1  0
 19 20  2  0
 20 21  1  0
 21 22  2  0
 22 23  1  0
 23 24  2  0
 24 25  1  0
 25 26  2  0
 26 27  1  0
 27 28  2  0
 21 29  1  0
 29 30  3  0
 20 31  1  0
 22  3  1  0
 28 23  1  0
 12  7  1  0
 18 16  1  0
  6 32  1  0
  6 33  1  0
  8 34  1  0
  9 35  1  0
 12 36  1  0
 15 37  1  0
 16 38  1  0
 17 39  1  0
 17 40  1  0
 18 41  1  0
 18 42  1  0
 24 43  1  0
 25 44  1  0
 26 45  1  0
 27 46  1  0
 28 47  1  0
 31 48  1  0
 31 49  1  0
M  END
>  <Ligand ID>  (1) 
LIG0002972

>  <Ligand>  (1) 
SCHEMBL3358745

>  <SMILES>  (1) 
N#Cc1c(OCc2ccnc(c2)C(=O)NC2CC2)nc(c(c1c1ccccc1)C#N)N

>  <CID>  (1) 
68612168.0

>  <ChEMBL ID>  (1) 
nan

>  <InChiKey>  (1) 
WKAHMRMVDYWVPB-UHFFFAOYSA-N

>  <InChi>  (1) 
InChI=1S/C23H18N6O2/c24-11-17-20(15-4-2-1-3-5-15)18(12-25)23(29-21(17)26)31-13-14-8-9-27-19(10-14)22(30)28-16-6-7-16/h1-5,8-10,16H,6-7,13H2,(H2,26,29)(H,28,30)

>  <IUPAC Name>  (1) 
4-[(6-amino-3,5-dicyano-4-phenylpyridin-2-yl)oxymethyl]-N-cyclopropylpyridine-2-carboxamide

$$$$
