
     RDKit          3D

 92 93  0  0  0  0  0  0  0  0999 V2000
    5.9622    0.5432    3.6449 C   0  0  0  0  0  0  0  0  0  0  0  0
    5.8013    1.6174    2.7164 N   0  0  0  0  0  0  0  0  0  0  0  0
    6.8874    2.5566    2.7370 C   0  0  0  0  0  0  0  0  0  0  0  0
    7.7360    2.3687    1.4863 C   0  0  0  0  0  0  0  0  0  0  0  0
    7.8264    0.9715    1.0987 N   0  0  0  0  0  0  0  0  0  0  0  0
    6.5482    0.4053    0.7291 C   0  0  0  0  0  0  0  0  0  0  0  0
    5.4444    1.2062    1.3765 C   0  0  1  0  0  0  0  0  0  0  0  0
    4.1703    0.4596    1.4764 C   0  0  0  0  0  0  0  0  0  0  0  0
    3.5626    0.2773    2.5633 O   0  0  0  0  0  0  0  0  0  0  0  0
    3.5859   -0.0872    0.3030 N   0  0  0  0  0  0  0  0  0  0  0  0
    2.3115   -0.8342    0.3963 C   0  0  1  0  0  0  0  0  0  0  0  0
    1.3809   -0.1481   -0.4933 C   0  0  0  0  0  0  0  0  0  0  0  0
    1.9106    0.7583   -1.2540 O   0  0  0  0  0  0  0  0  0  0  0  0
   -0.0026   -0.3111   -0.6547 N   0  0  0  0  0  0  0  0  0  0  0  0
   -0.6313    0.5411   -1.6759 C   0  0  0  0  0  0  0  0  0  0  0  0
   -1.8599    1.2158   -1.0966 C   0  0  0  0  0  0  0  0  0  0  0  0
   -2.8868    0.1667   -0.6780 C   0  0  0  0  0  0  0  0  0  0  0  0
   -2.2507   -1.1801   -0.5368 C   0  0  0  0  0  0  0  0  0  0  0  0
   -0.8653   -1.1767    0.0722 C   0  0  0  0  0  0  0  0  0  0  0  0
   -3.9747    0.0864   -1.7196 C   0  0  0  0  0  0  0  0  0  0  0  0
   -4.7481    1.3512   -1.9252 C   0  0  0  0  0  0  0  0  0  0  0  0
   -5.8223    1.1233   -2.9500 C   0  0  0  0  0  0  0  0  0  0  0  0
   -5.7043   -0.2154   -3.6038 C   0  0  0  0  0  0  0  0  0  0  0  0
   -5.7431   -1.3857   -2.6602 C   0  0  0  0  0  0  0  0  0  0  0  0
   -4.9687   -0.9890   -1.3792 C   0  0  0  0  0  0  0  0  0  0  0  0
   -3.4639    0.6620    0.5854 C   0  0  0  0  0  0  0  0  0  0  0  0
   -3.1829    1.8691    0.8972 O   0  0  0  0  0  0  0  0  0  0  0  0
   -4.2783   -0.0504    1.4710 N   0  0  0  0  0  0  0  0  0  0  0  0
   -4.7464    0.6389    2.6702 C   0  0  0  0  0  0  0  0  0  0  0  0
   -5.5908   -0.3156    3.4723 C   0  0  0  0  0  0  0  0  0  0  0  0
   -5.6304    1.8012    2.2726 C   0  0  0  0  0  0  0  0  0  0  0  0
   -3.6032    1.1402    3.5151 C   0  0  0  0  0  0  0  0  0  0  0  0
    2.5650   -2.2608   -0.0533 C   0  0  0  0  0  0  0  0  0  0  0  0
    3.0404   -2.3418   -1.4360 C   0  0  0  0  0  0  0  0  0  0  0  0
    2.0685   -2.4640   -2.4365 C   0  0  0  0  0  0  0  0  0  0  0  0
    2.4583   -2.5425   -3.7623 C   0  0  0  0  0  0  0  0  0  0  0  0
    3.7887   -2.5034   -4.1346 C   0  0  0  0  0  0  0  0  0  0  0  0
    4.7385   -2.3825   -3.1372 C   0  0  0  0  0  0  0  0  0  0  0  0
    4.3755   -2.3015   -1.7929 C   0  0  0  0  0  0  0  0  0  0  0  0
    4.1702   -2.5819   -5.4489 F   0  0  0  0  0  0  0  0  0  0  0  0
    0.6925    0.0000    0.0000 Cl  0  0  0  0  0  0  0  0  0  0  0  0
    0.6856    0.0000    0.0000 Cl  0  0  0  0  0  0  0  0  0  0  0  0
    5.1191    0.5316    4.3926 H   0  0  0  0  0  0  0  0  0  0  0  0
    6.8866    0.7104    4.2312 H   0  0  0  0  0  0  0  0  0  0  0  0
    6.0807   -0.4519    3.1639 H   0  0  0  0  0  0  0  0  0  0  0  0
    6.4229    3.5841    2.6870 H   0  0  0  0  0  0  0  0  0  0  0  0
    7.4630    2.4361    3.6654 H   0  0  0  0  0  0  0  0  0  0  0  0
    8.7677    2.6556    1.7921 H   0  0  0  0  0  0  0  0  0  0  0  0
    7.4132    3.0209    0.6746 H   0  0  0  0  0  0  0  0  0  0  0  0
    8.3068    0.4420    1.8515 H   0  0  0  0  0  0  0  0  0  0  0  0
    6.5017   -0.6715    0.9089 H   0  0  0  0  0  0  0  0  0  0  0  0
    6.4339    0.5552   -0.3821 H   0  0  0  0  0  0  0  0  0  0  0  0
    5.3505    2.1509    0.7820 H   0  0  0  0  0  0  0  0  0  0  0  0
    3.9994   -0.0003   -0.6500 H   0  0  0  0  0  0  0  0  0  0  0  0
    1.9185   -0.8686    1.4175 H   0  0  0  0  0  0  0  0  0  0  0  0
   -0.8223   -0.0033   -2.6146 H   0  0  0  0  0  0  0  0  0  0  0  0
    0.0739    1.3566   -1.8971 H   0  0  0  0  0  0  0  0  0  0  0  0
   -1.5935    1.8255   -0.2275 H   0  0  0  0  0  0  0  0  0  0  0  0
   -2.2731    1.8525   -1.8819 H   0  0  0  0  0  0  0  0  0  0  0  0
   -2.9010   -1.8582    0.1105 H   0  0  0  0  0  0  0  0  0  0  0  0
   -2.1640   -1.7226   -1.5035 H   0  0  0  0  0  0  0  0  0  0  0  0
   -0.8799   -0.8225    1.1252 H   0  0  0  0  0  0  0  0  0  0  0  0
   -0.5142   -2.2181   -0.0175 H   0  0  0  0  0  0  0  0  0  0  0  0
   -3.5198   -0.1565   -2.7295 H   0  0  0  0  0  0  0  0  0  0  0  0
   -4.1629    2.2391   -2.1869 H   0  0  0  0  0  0  0  0  0  0  0  0
   -5.3193    1.6291   -0.9763 H   0  0  0  0  0  0  0  0  0  0  0  0
   -5.6673    1.9042   -3.7645 H   0  0  0  0  0  0  0  0  0  0  0  0
   -6.8581    1.2964   -2.5533 H   0  0  0  0  0  0  0  0  0  0  0  0
   -4.8018   -0.3107   -4.2364 H   0  0  0  0  0  0  0  0  0  0  0  0
   -6.5572   -0.3581   -4.3245 H   0  0  0  0  0  0  0  0  0  0  0  0
   -5.1797   -2.2178   -3.1246 H   0  0  0  0  0  0  0  0  0  0  0  0
   -6.7424   -1.7484   -2.4106 H   0  0  0  0  0  0  0  0  0  0  0  0
   -5.7298   -0.6391   -0.6455 H   0  0  0  0  0  0  0  0  0  0  0  0
   -4.4898   -1.9027   -1.0203 H   0  0  0  0  0  0  0  0  0  0  0  0
   -4.5229   -1.0321    1.2824 H   0  0  0  0  0  0  0  0  0  0  0  0
   -5.4207   -0.1898    4.5806 H   0  0  0  0  0  0  0  0  0  0  0  0
   -5.3994   -1.3674    3.1651 H   0  0  0  0  0  0  0  0  0  0  0  0
   -6.6877   -0.1395    3.3161 H   0  0  0  0  0  0  0  0  0  0  0  0
   -6.0712    1.5426    1.2950 H   0  0  0  0  0  0  0  0  0  0  0  0
   -6.3875    1.9275    3.0740 H   0  0  0  0  0  0  0  0  0  0  0  0
   -5.0382    2.7421    2.2699 H   0  0  0  0  0  0  0  0  0  0  0  0
   -3.3951    2.1881    3.2158 H   0  0  0  0  0  0  0  0  0  0  0  0
   -3.9679    1.1161    4.5793 H   0  0  0  0  0  0  0  0  0  0  0  0
   -2.6711    0.5617    3.3941 H   0  0  0  0  0  0  0  0  0  0  0  0
    1.6556   -2.8436    0.0761 H   0  0  0  0  0  0  0  0  0  0  0  0
    3.3037   -2.7376    0.6671 H   0  0  0  0  0  0  0  0  0  0  0  0
    1.0033   -2.4969   -2.1825 H   0  0  0  0  0  0  0  0  0  0  0  0
    1.7348   -2.6407   -4.5776 H   0  0  0  0  0  0  0  0  0  0  0  0
    5.7894   -2.3512   -3.4321 H   0  0  0  0  0  0  0  0  0  0  0  0
    5.1342   -2.2071   -1.0338 H   0  0  0  0  0  0  0  0  0  0  0  0
   -0.6925    0.0000    0.0000 H   0  0  0  0  0  0  0  0  0  0  0  0
   -0.6856    0.0000    0.0000 H   0  0  0  0  0  0  0  0  0  0  0  0
  1  2  1  0
  2  3  1  0
  3  4  1  0
  4  5  1  0
  5  6  1  0
  6  7  1  0
  7  8  1  0
  8  9  2  0
  8 10  1  0
 10 11  1  0
 11 12  1  0
 12 13  2  0
 12 14  1  0
 14 15  1  0
 15 16  1  0
 16 17  1  0
 17 18  1  0
 18 19  1  0
 17 20  1  0
 20 21  1  0
 21 22  1  0
 22 23  1  0
 23 24  1  0
 24 25  1  0
 17 26  1  0
 26 27  2  0
 26 28  1  0
 28 29  1  0
 29 30  1  0
 29 31  1  0
 29 32  1  0
 11 33  1  0
 33 34  1  0
 34 35  2  0
 35 36  1  0
 36 37  2  0
 37 38  1  0
 38 39  2  0
 37 40  1  0
  7  2  1  0
 19 14  1  0
 25 20  1  0
 39 34  1  0
  1 43  1  0
  1 44  1  0
  1 45  1  0
  3 46  1  0
  3 47  1  0
  4 48  1  0
  4 49  1  0
  5 50  1  0
  6 51  1  0
  6 52  1  0
  7 53  1  6
 10 54  1  0
 11 55  1  1
 15 56  1  0
 15 57  1  0
 16 58  1  0
 16 59  1  0
 18 60  1  0
 18 61  1  0
 19 62  1  0
 19 63  1  0
 20 64  1  0
 21 65  1  0
 21 66  1  0
 22 67  1  0
 22 68  1  0
 23 69  1  0
 23 70  1  0
 24 71  1  0
 24 72  1  0
 25 73  1  0
 25 74  1  0
 28 75  1  0
 30 76  1  0
 30 77  1  0
 30 78  1  0
 31 79  1  0
 31 80  1  0
 31 81  1  0
 32 82  1  0
 32 83  1  0
 32 84  1  0
 33 85  1  0
 33 86  1  0
 35 87  1  0
 36 88  1  0
 38 89  1  0
 39 90  1  0
 41 91  1  0
 42 92  1  0
M  END
>  <Ligand ID>  (1) 
LIG0003388

>  <Ligand>  (1) 
CHEMBL3216393

>  <SMILES>  (1) 
CN1CCNC[C@H]1C(=O)N[C@@H](C(=O)N1CCC(CC1)(C1CCCCC1)C(=O)NC(C)(C)C)Cc1ccc(cc1)F.Cl.Cl

>  <CID>  (1) 
90664763.0

>  <ChEMBL ID>  (1) 
nan

>  <InChiKey>  (1) 
ZAHZIFGANRXOHN-JQJBDSOESA-N

>  <InChi>  (1) 
InChI=1S/C31H48FN5O3.2ClH/c1-30(2,3)35-29(40)31(23-8-6-5-7-9-23)14-17-37(18-15-31)28(39)25(20-22-10-12-24(32)13-11-22)34-27(38)26-21-33-16-19-36(26)4;;/h10-13,23,25-26,33H,5-9,14-21H2,1-4H3,(H,34,38)(H,35,40);2*1H/t25-,26+;;/m1../s1

>  <IUPAC Name>  (1) 
(2S)-N-[(2R)-1-[4-(tert-butylcarbamoyl)-4-cyclohexylpiperidin-1-yl]-3-(4-fluorophenyl)-1-oxopropan-2-yl]-1-methylpiperazine-2-carboxamide;dihydrochloride

$$$$
