
     RDKit          3D

 62 68  0  0  0  0  0  0  0  0999 V2000
   -2.5405   -3.2279    2.8810 C   0  0  0  0  0  0  0  0  0  0  0  0
   -1.6699   -2.0112    2.9155 C   0  0  0  0  0  0  0  0  0  0  0  0
   -1.1297   -1.5340    1.8143 C   0  0  0  0  0  0  0  0  0  0  0  0
   -1.2968   -2.1089    0.4272 C   0  0  0  0  0  0  0  0  0  0  0  0
   -0.3960   -1.3065   -0.4406 C   0  0  2  0  0  0  0  0  0  0  0  0
    0.6391   -0.8296    0.5543 C   0  0  1  0  0  0  0  0  0  0  0  0
   -0.2316   -0.3283    1.6499 C   0  0  1  0  0  0  0  0  0  0  0  0
   -1.1007    0.7640    1.2042 C   0  0  0  0  0  0  0  0  0  0  0  0
   -1.6487    1.8488    1.8233 N   0  0  0  0  0  0  0  0  0  0  0  0
   -2.3843    2.5522    0.9443 C   0  0  0  0  0  0  0  0  0  0  0  0
   -2.3395    1.9415   -0.2923 C   0  0  0  0  0  0  0  0  0  0  0  0
   -1.5267    0.8236   -0.0948 C   0  0  0  0  0  0  0  0  0  0  0  0
   -1.1356   -0.1957   -1.0927 C   0  0  0  0  0  0  0  0  0  0  0  0
   -3.0084    2.4505   -1.3884 C   0  0  0  0  0  0  0  0  0  0  0  0
   -3.7437    3.6159   -1.2170 C   0  0  0  0  0  0  0  0  0  0  0  0
   -3.8139    4.2586    0.0067 C   0  0  0  0  0  0  0  0  0  0  0  0
   -3.1332    3.7222    1.0808 C   0  0  0  0  0  0  0  0  0  0  0  0
    1.5898   -1.8979    0.9726 C   0  0  0  0  0  0  0  0  0  0  0  0
    1.4756   -3.2179    0.3241 C   0  0  0  0  0  0  0  0  0  0  0  0
    0.7714   -3.3112   -0.8942 N   0  0  0  0  0  0  0  0  0  0  0  0
    0.3445   -2.0917   -1.4812 C   0  0  0  0  0  0  0  0  0  0  0  0
    1.3757   -1.2834   -2.1627 C   0  0  0  0  0  0  0  0  0  0  0  0
    1.7799   -0.0313   -1.4897 C   0  0  0  0  0  0  0  0  0  0  0  0
    1.4284    0.2089   -0.1591 C   0  0  0  0  0  0  0  0  0  0  0  0
    1.8274    1.3915    0.4287 C   0  0  0  0  0  0  0  0  0  0  0  0
    1.4922    1.6504    1.7405 O   0  0  0  0  0  0  0  0  0  0  0  0
    2.5545    2.2780   -0.3291 C   0  0  0  0  0  0  0  0  0  0  0  0
    2.9016    2.0533   -1.6249 C   0  0  0  0  0  0  0  0  0  0  0  0
    2.5115    0.8774   -2.2278 C   0  0  0  0  0  0  0  0  0  0  0  0
    2.9545    3.4686    0.2677 O   0  0  0  0  0  0  0  0  0  0  0  0
    3.7083    4.4455   -0.4345 C   0  0  0  0  0  0  0  0  0  0  0  0
    1.2216   -4.3257   -1.7948 C   0  0  0  0  0  0  0  0  0  0  0  0
   -3.1175   -3.1434    1.9290 H   0  0  0  0  0  0  0  0  0  0  0  0
   -1.8232   -4.0906    2.7746 H   0  0  0  0  0  0  0  0  0  0  0  0
   -3.1707   -3.3175    3.7669 H   0  0  0  0  0  0  0  0  0  0  0  0
   -1.4537   -1.4810    3.8463 H   0  0  0  0  0  0  0  0  0  0  0  0
   -1.1693   -3.1878    0.3928 H   0  0  0  0  0  0  0  0  0  0  0  0
   -2.3636   -1.8578    0.1664 H   0  0  0  0  0  0  0  0  0  0  0  0
    0.2624   -0.1431    2.6133 H   0  0  0  0  0  0  0  0  0  0  0  0
   -1.5302    2.1144    2.8261 H   0  0  0  0  0  0  0  0  0  0  0  0
   -2.0562   -0.6390   -1.5722 H   0  0  0  0  0  0  0  0  0  0  0  0
   -0.6208    0.3253   -1.9067 H   0  0  0  0  0  0  0  0  0  0  0  0
   -2.9540    1.9501   -2.3422 H   0  0  0  0  0  0  0  0  0  0  0  0
   -4.2796    4.0416   -2.0546 H   0  0  0  0  0  0  0  0  0  0  0  0
   -4.4062    5.1807    0.1074 H   0  0  0  0  0  0  0  0  0  0  0  0
   -3.2009    4.2430    2.0358 H   0  0  0  0  0  0  0  0  0  0  0  0
    2.6551   -1.5606    0.9143 H   0  0  0  0  0  0  0  0  0  0  0  0
    1.4380   -2.0245    2.0862 H   0  0  0  0  0  0  0  0  0  0  0  0
    2.4949   -3.6700    0.1349 H   0  0  0  0  0  0  0  0  0  0  0  0
    1.0115   -3.9664    1.0236 H   0  0  0  0  0  0  0  0  0  0  0  0
   -0.4394   -2.3692   -2.2470 H   0  0  0  0  0  0  0  0  0  0  0  0
    2.2813   -1.9451   -2.2901 H   0  0  0  0  0  0  0  0  0  0  0  0
    1.0959   -1.0148   -3.2054 H   0  0  0  0  0  0  0  0  0  0  0  0
    1.9895    2.2307    2.3735 H   0  0  0  0  0  0  0  0  0  0  0  0
    3.4789    2.7951   -2.1714 H   0  0  0  0  0  0  0  0  0  0  0  0
    2.7677    0.6502   -3.2726 H   0  0  0  0  0  0  0  0  0  0  0  0
    3.7772    5.3360    0.2065 H   0  0  0  0  0  0  0  0  0  0  0  0
    3.1350    4.6892   -1.3618 H   0  0  0  0  0  0  0  0  0  0  0  0
    4.6827    4.0130   -0.7273 H   0  0  0  0  0  0  0  0  0  0  0  0
    0.7454   -4.2328   -2.7711 H   0  0  0  0  0  0  0  0  0  0  0  0
    0.9623   -5.3176   -1.3556 H   0  0  0  0  0  0  0  0  0  0  0  0
    2.3306   -4.2576   -1.8308 H   0  0  0  0  0  0  0  0  0  0  0  0
  1  2  1  0
  2  3  2  0
  3  4  1  0
  5  4  1  1
  5  6  1  0
  6  7  1  0
  7  8  1  0
  8  9  1  0
  9 10  1  0
 10 11  2  0
 11 12  1  0
 12 13  1  0
 11 14  1  0
 14 15  2  0
 15 16  1  0
 16 17  2  0
  6 18  1  1
 18 19  1  0
 19 20  1  0
 20 21  1  0
 21 22  1  0
 22 23  1  0
 23 24  2  0
 24 25  1  0
 25 26  1  0
 25 27  2  0
 27 28  1  0
 28 29  2  0
 27 30  1  0
 30 31  1  0
 20 32  1  0
  7  3  1  0
 12  8  2  0
 29 23  1  0
 13  5  1  0
 21  5  1  0
 24  6  1  0
 17 10  1  0
  1 33  1  0
  1 34  1  0
  1 35  1  0
  2 36  1  0
  4 37  1  0
  4 38  1  0
  7 39  1  1
  9 40  1  0
 13 41  1  0
 13 42  1  0
 14 43  1  0
 15 44  1  0
 16 45  1  0
 17 46  1  0
 18 47  1  0
 18 48  1  0
 19 49  1  0
 19 50  1  0
 21 51  1  0
 22 52  1  0
 22 53  1  0
 26 54  1  0
 28 55  1  0
 29 56  1  0
 31 57  1  0
 31 58  1  0
 31 59  1  0
 32 60  1  0
 32 61  1  0
 32 62  1  0
M  END
>  <Ligand ID>  (1) 
LIG0002325

>  <Ligand>  (1) 
CHEMBL320306

>  <SMILES>  (1) 
C/C=C/1\C[C@]23[C@@]4([C@H]1c1[nH]c5c(c1C2)cccc5)CCN(C3Cc1c4c(O)c(cc1)OC)C

>  <CID>  (1) 
44337839.0

>  <ChEMBL ID>  (1) 
nan

>  <InChiKey>  (1) 
LCAPOJSUBMKLGT-XCXOOCPHSA-N

>  <InChi>  (1) 
InChI=1S/C28H30N2O2/c1-4-16-14-27-15-19-18-7-5-6-8-20(18)29-25(19)23(16)28(27)11-12-30(2)22(27)13-17-9-10-21(32-3)26(31)24(17)28/h4-10,22-23,29,31H,11-15H2,1-3H3/b16-4+/t22?,23-,27+,28-/m1/s1

>  <IUPAC Name>  (1) 
(1S,2S,13R,26E)-26-ethylidene-19-methoxy-24-methyl-4,24-diazaheptacyclo[12.7.3.22,13.01,13.03,11.05,10.016,21]hexacosa-3(11),5,7,9,16(21),17,19-heptaen-20-ol

$$$$
