
     RDKit          3D

 39 40  0  0  0  0  0  0  0  0999 V2000
   -0.7955   -2.2012    2.0521 O   0  0  0  0  0  0  0  0  0  0  0  0
   -0.1635   -1.5800    0.9625 C   0  0  2  0  0  0  0  0  0  0  0  0
    0.1185   -0.1562    1.3463 C   0  0  1  0  0  0  0  0  0  0  0  0
    1.4563    0.2733    0.7618 C   0  0  0  0  0  0  0  0  0  0  0  0
    1.4417    0.1573   -0.6270 O   0  0  0  0  0  0  0  0  0  0  0  0
    2.9626    0.6511   -1.2061 P   0  0  0  0  0  0  0  0  0  0  0  0
    3.4766   -0.3876   -2.1704 O   0  0  0  0  0  0  0  0  0  0  0  0
    4.0476    0.8174    0.0777 O   0  0  0  0  0  0  0  0  0  0  0  0
    5.4998    0.1029   -0.3519 P   0  0  0  0  0  0  0  0  0  0  0  0
    5.6112   -0.1392   -1.8333 O   0  0  0  0  0  0  0  0  0  0  0  0
    5.7123   -1.3889    0.4236 O   0  0  0  0  0  0  0  0  0  0  0  0
    6.7643    1.1478    0.0826 O   0  0  0  0  0  0  0  0  0  0  0  0
    2.8174    2.1634   -1.9834 O   0  0  0  0  0  0  0  0  0  0  0  0
   -0.9214    0.6235    0.8653 O   0  0  0  0  0  0  0  0  0  0  0  0
   -2.0020   -0.2725    0.7079 C   0  0  2  0  0  0  0  0  0  0  0  0
   -1.2867   -1.3570   -0.0615 C   0  0  2  0  0  0  0  0  0  0  0  0
   -2.0172   -2.4958   -0.2716 O   0  0  0  0  0  0  0  0  0  0  0  0
   -3.0967    0.3386    0.0343 N   0  0  0  0  0  0  0  0  0  0  0  0
   -2.9577    1.5167   -0.6043 C   0  0  0  0  0  0  0  0  0  0  0  0
   -4.0224    2.0722   -1.2371 C   0  0  0  0  0  0  0  0  0  0  0  0
   -5.2496    1.4487   -1.2376 C   0  0  0  0  0  0  0  0  0  0  0  0
   -6.2457    1.9548   -1.8217 O   0  0  0  0  0  0  0  0  0  0  0  0
   -5.3596    0.2638   -0.5865 N   0  0  0  0  0  0  0  0  0  0  0  0
   -4.2891   -0.2858    0.0446 C   0  0  0  0  0  0  0  0  0  0  0  0
   -4.5419   -1.7120    0.7928 S   0  0  0  0  0  0  0  0  0  0  0  0
   -0.9334   -3.1541    1.8669 H   0  0  0  0  0  0  0  0  0  0  0  0
    0.6795   -2.1386    0.5618 H   0  0  0  0  0  0  0  0  0  0  0  0
    0.1615    0.0006    2.4431 H   0  0  0  0  0  0  0  0  0  0  0  0
    2.2384   -0.3727    1.1702 H   0  0  0  0  0  0  0  0  0  0  0  0
    1.6652    1.3326    1.0133 H   0  0  0  0  0  0  0  0  0  0  0  0
    5.5845   -1.3127    1.4062 H   0  0  0  0  0  0  0  0  0  0  0  0
    7.1430    1.5909   -0.6947 H   0  0  0  0  0  0  0  0  0  0  0  0
    3.5732    2.2455   -2.5971 H   0  0  0  0  0  0  0  0  0  0  0  0
   -2.2179   -0.6389    1.7194 H   0  0  0  0  0  0  0  0  0  0  0  0
   -0.7903   -0.9608   -0.9673 H   0  0  0  0  0  0  0  0  0  0  0  0
   -1.8455   -2.9164   -1.1685 H   0  0  0  0  0  0  0  0  0  0  0  0
   -1.9811    1.9751   -0.5822 H   0  0  0  0  0  0  0  0  0  0  0  0
   -3.9420    3.0250   -1.7630 H   0  0  0  0  0  0  0  0  0  0  0  0
   -6.2944   -0.2307   -0.5756 H   0  0  0  0  0  0  0  0  0  0  0  0
  1  2  1  0
  2  3  1  0
  3  4  1  0
  4  5  1  0
  5  6  1  0
  6  7  2  0
  6  8  1  0
  8  9  1  0
  9 10  2  0
  9 11  1  0
  9 12  1  0
  6 13  1  0
  3 14  1  0
 14 15  1  0
 15 16  1  0
 16 17  1  0
 15 18  1  0
 18 19  1  0
 19 20  2  0
 20 21  1  0
 21 22  2  0
 21 23  1  0
 23 24  1  0
 24 25  2  0
 16  2  1  0
 24 18  1  0
  1 26  1  0
  2 27  1  6
  3 28  1  1
  4 29  1  0
  4 30  1  0
 11 31  1  0
 12 32  1  0
 13 33  1  0
 15 34  1  1
 16 35  1  6
 17 36  1  0
 19 37  1  0
 20 38  1  0
 23 39  1  0
M  END
>  <Ligand ID>  (1) 
LIG0001285

>  <Ligand>  (1) 
2-thio-UDP

>  <SMILES>  (1) 
O[C@@H]1[C@@H](COP(=O)(OP(=O)(O)O)O)O[C@H]([C@@H]1O)n1ccc(=O)[nH]c1=S

>  <CID>  (1) 
16082712.0

>  <ChEMBL ID>  (1) 
nan

>  <InChiKey>  (1) 
BMJOHSBBMARQHC-XVFCMESISA-N

>  <InChi>  (1) 
InChI=1S/C9H14N2O11P2S/c12-5-1-2-11(9(25)10-5)8-7(14)6(13)4(21-8)3-20-24(18,19)22-23(15,16)17/h1-2,4,6-8,13-14H,3H2,(H,18,19)(H,10,12,25)(H2,15,16,17)/t4-,6-,7-,8-/m1/s1

>  <IUPAC Name>  (1) 
[(2R,3S,4R,5R)-3,4-dihydroxy-5-(4-oxo-2-sulfanylidenepyrimidin-1-yl)oxolan-2-yl]methyl phosphono hydrogen phosphate

$$$$
