
     RDKit          3D

 34 33  0  0  0  0  0  0  0  0999 V2000
    3.9661   -1.7649   -0.6871 C   0  0  0  0  0  0  0  0  0  0  0  0
    3.5315   -0.3264   -0.6542 C   0  0  0  0  0  0  0  0  0  0  0  0
    2.6938   -0.1273    0.5854 C   0  0  0  0  0  0  0  0  0  0  0  0
    2.1862    1.2700    0.7536 C   0  0  0  0  0  0  0  0  0  0  0  0
    1.3162    1.7452   -0.3715 C   0  0  0  0  0  0  0  0  0  0  0  0
    0.0878    0.9374   -0.5906 C   0  0  0  0  0  0  0  0  0  0  0  0
   -0.8699    0.8493    0.5387 C   0  0  0  0  0  0  0  0  0  0  0  0
   -2.0161   -0.0355    0.0197 C   0  0  0  0  0  0  0  0  0  0  0  0
   -3.0802   -0.2355    1.0289 C   0  0  0  0  0  0  0  0  0  0  0  0
   -4.2268   -1.1012    0.5716 C   0  0  0  0  0  0  0  0  0  0  0  0
   -4.9403   -0.5353   -0.5940 C   0  0  0  0  0  0  0  0  0  0  0  0
   -4.7014    0.5086   -1.1383 O   0  0  0  0  0  0  0  0  0  0  0  0
    3.3312   -2.4117   -1.3243 H   0  0  0  0  0  0  0  0  0  0  0  0
    3.9309   -2.1974    0.3330 H   0  0  0  0  0  0  0  0  0  0  0  0
    5.0050   -1.9086   -1.0617 H   0  0  0  0  0  0  0  0  0  0  0  0
    4.4671    0.2656   -0.5317 H   0  0  0  0  0  0  0  0  0  0  0  0
    3.0644    0.0409   -1.5658 H   0  0  0  0  0  0  0  0  0  0  0  0
    3.3017   -0.3643    1.4825 H   0  0  0  0  0  0  0  0  0  0  0  0
    1.8119   -0.8121    0.5826 H   0  0  0  0  0  0  0  0  0  0  0  0
    1.6652    1.3025    1.7333 H   0  0  0  0  0  0  0  0  0  0  0  0
    3.0675    1.9326    0.8689 H   0  0  0  0  0  0  0  0  0  0  0  0
    1.1002    2.8197   -0.2105 H   0  0  0  0  0  0  0  0  0  0  0  0
    1.9080    1.6998   -1.3084 H   0  0  0  0  0  0  0  0  0  0  0  0
   -0.4456    1.4178   -1.4637 H   0  0  0  0  0  0  0  0  0  0  0  0
    0.3086   -0.0871   -0.9536 H   0  0  0  0  0  0  0  0  0  0  0  0
   -1.3205    1.7873    0.8585 H   0  0  0  0  0  0  0  0  0  0  0  0
   -0.4005    0.2520    1.3650 H   0  0  0  0  0  0  0  0  0  0  0  0
   -2.4345    0.4436   -0.8833 H   0  0  0  0  0  0  0  0  0  0  0  0
   -1.6011   -1.0334   -0.2769 H   0  0  0  0  0  0  0  0  0  0  0  0
   -2.6485   -0.6064    1.9924 H   0  0  0  0  0  0  0  0  0  0  0  0
   -3.5661    0.7424    1.3236 H   0  0  0  0  0  0  0  0  0  0  0  0
   -3.7788   -2.0601    0.2263 H   0  0  0  0  0  0  0  0  0  0  0  0
   -4.9501   -1.2822    1.4157 H   0  0  0  0  0  0  0  0  0  0  0  0
   -5.7627   -1.1256   -0.9960 H   0  0  0  0  0  0  0  0  0  0  0  0
  1  2  1  0
  2  3  1  0
  3  4  1  0
  4  5  1  0
  5  6  1  0
  6  7  1  0
  7  8  1  0
  8  9  1  0
  9 10  1  0
 10 11  1  0
 11 12  2  0
  1 13  1  0
  1 14  1  0
  1 15  1  0
  2 16  1  0
  2 17  1  0
  3 18  1  0
  3 19  1  0
  4 20  1  0
  4 21  1  0
  5 22  1  0
  5 23  1  0
  6 24  1  0
  6 25  1  0
  7 26  1  0
  7 27  1  0
  8 28  1  0
  8 29  1  0
  9 30  1  0
  9 31  1  0
 10 32  1  0
 10 33  1  0
 11 34  1  0
M  END
>  <Ligand ID>  (1) 
LIG0000033

>  <Ligand>  (1) 
undecanal

>  <SMILES>  (1) 
CCCCCCCCCCC=O

>  <CID>  (1) 
8186.0

>  <ChEMBL ID>  (1) 
nan

>  <InChiKey>  (1) 
KMPQYAYAQWNLME-UHFFFAOYSA-N

>  <InChi>  (1) 
InChI=1S/C11H22O/c1-2-3-4-5-6-7-8-9-10-11-12/h11H,2-10H2,1H3

>  <IUPAC Name>  (1) 
undecanal

$$$$
