
     RDKit          3D

 55 57  0  0  0  0  0  0  0  0999 V2000
   -7.2749    1.2260    1.4940 C   0  0  0  0  0  0  0  0  0  0  0  0
   -6.5786    0.6423    2.7027 C   0  0  0  0  0  0  0  0  0  0  0  0
   -5.2365    0.2694    2.4198 O   0  0  0  0  0  0  0  0  0  0  0  0
   -4.9206   -0.6691    1.4555 C   0  0  0  0  0  0  0  0  0  0  0  0
   -5.7898   -1.2664    0.7535 O   0  0  0  0  0  0  0  0  0  0  0  0
   -3.5469   -0.9741    1.2466 N   0  0  0  0  0  0  0  0  0  0  0  0
   -2.4729   -0.3499    1.9961 C   0  0  0  0  0  0  0  0  0  0  0  0
   -1.1815   -0.5643    1.1945 C   0  0  0  0  0  0  0  0  0  0  0  0
   -1.4782   -0.1622   -0.2137 C   0  0  0  0  0  0  0  0  0  0  0  0
   -2.3093   -1.2554   -0.8462 C   0  0  0  0  0  0  0  0  0  0  0  0
   -3.1318   -1.9580    0.2391 C   0  0  0  0  0  0  0  0  0  0  0  0
   -0.3253    0.1812   -0.9967 N   0  0  0  0  0  0  0  0  0  0  0  0
   -0.5778    0.5767   -2.3138 C   0  0  0  0  0  0  0  0  0  0  0  0
    0.3489   -0.0197   -3.3111 C   0  0  0  0  0  0  0  0  0  0  0  0
    1.7669    0.2638   -2.8700 C   0  0  0  0  0  0  0  0  0  0  0  0
    2.0510   -0.3078   -1.5077 C   0  0  2  0  0  0  0  0  0  0  0  0
    0.8799   -0.4120   -0.6213 C   0  0  0  0  0  0  0  0  0  0  0  0
    3.0987    0.4989   -0.9056 N   0  0  0  0  0  0  0  0  0  0  0  0
    4.3759   -0.0722   -0.6566 C   0  0  0  0  0  0  0  0  0  0  0  0
    4.6041   -1.2901   -0.9629 O   0  0  0  0  0  0  0  0  0  0  0  0
    5.4836    0.6509   -0.0569 C   0  0  0  0  0  0  0  0  0  0  0  0
    6.0834    1.7534   -0.6180 C   0  0  0  0  0  0  0  0  0  0  0  0
    7.1491    2.4178   -0.0009 C   0  0  0  0  0  0  0  0  0  0  0  0
    7.6241    1.9477    1.2295 C   0  0  0  0  0  0  0  0  0  0  0  0
    7.0002    0.8413    1.7626 C   0  0  0  0  0  0  0  0  0  0  0  0
    5.9521    0.1867    1.1571 C   0  0  0  0  0  0  0  0  0  0  0  0
    5.2676   -1.2022    1.9604 Cl  0  0  0  0  0  0  0  0  0  0  0  0
   -7.8056    2.1776    1.7801 H   0  0  0  0  0  0  0  0  0  0  0  0
   -6.5635    1.4857    0.6924 H   0  0  0  0  0  0  0  0  0  0  0  0
   -8.0180    0.5128    1.1053 H   0  0  0  0  0  0  0  0  0  0  0  0
   -7.1759   -0.2091    3.1138 H   0  0  0  0  0  0  0  0  0  0  0  0
   -6.5339    1.4231    3.4853 H   0  0  0  0  0  0  0  0  0  0  0  0
   -2.6580    0.7440    1.9876 H   0  0  0  0  0  0  0  0  0  0  0  0
   -2.3622   -0.7681    3.0188 H   0  0  0  0  0  0  0  0  0  0  0  0
   -0.4065    0.0796    1.6729 H   0  0  0  0  0  0  0  0  0  0  0  0
   -0.9534   -1.6453    1.2911 H   0  0  0  0  0  0  0  0  0  0  0  0
   -2.1223    0.7440   -0.1720 H   0  0  0  0  0  0  0  0  0  0  0  0
   -3.0840   -0.7959   -1.5143 H   0  0  0  0  0  0  0  0  0  0  0  0
   -1.7052   -2.0150   -1.3582 H   0  0  0  0  0  0  0  0  0  0  0  0
   -2.5499   -2.7914    0.6902 H   0  0  0  0  0  0  0  0  0  0  0  0
   -4.0253   -2.4143   -0.2379 H   0  0  0  0  0  0  0  0  0  0  0  0
   -0.6020    1.6754   -2.4843 H   0  0  0  0  0  0  0  0  0  0  0  0
   -1.6095    0.2026   -2.5852 H   0  0  0  0  0  0  0  0  0  0  0  0
    0.2104    0.4964   -4.2850 H   0  0  0  0  0  0  0  0  0  0  0  0
    0.2543   -1.0947   -3.4866 H   0  0  0  0  0  0  0  0  0  0  0  0
    1.9412    1.3600   -2.9293 H   0  0  0  0  0  0  0  0  0  0  0  0
    2.4361   -0.2058   -3.6190 H   0  0  0  0  0  0  0  0  0  0  0  0
    2.5153   -1.3247   -1.6724 H   0  0  0  0  0  0  0  0  0  0  0  0
    0.6715   -1.5002   -0.3993 H   0  0  0  0  0  0  0  0  0  0  0  0
    1.1697   -0.0098    0.3939 H   0  0  0  0  0  0  0  0  0  0  0  0
    2.9616    1.4876   -0.6434 H   0  0  0  0  0  0  0  0  0  0  0  0
    5.7052    2.1010   -1.5641 H   0  0  0  0  0  0  0  0  0  0  0  0
    7.6067    3.2931   -0.4725 H   0  0  0  0  0  0  0  0  0  0  0  0
    8.4596    2.4505    1.7353 H   0  0  0  0  0  0  0  0  0  0  0  0
    7.3822    0.4841    2.7270 H   0  0  0  0  0  0  0  0  0  0  0  0
  1  2  1  0
  2  3  1  0
  3  4  1  0
  4  5  2  0
  4  6  1  0
  6  7  1  0
  7  8  1  0
  8  9  1  0
  9 10  1  0
 10 11  1  0
  9 12  1  0
 12 13  1  0
 13 14  1  0
 14 15  1  0
 15 16  1  0
 16 17  1  0
 16 18  1  0
 18 19  1  0
 19 20  2  0
 19 21  1  0
 21 22  2  0
 22 23  1  0
 23 24  2  0
 24 25  1  0
 25 26  2  0
 26 27  1  0
 11  6  1  0
 17 12  1  0
 26 21  1  0
  1 28  1  0
  1 29  1  0
  1 30  1  0
  2 31  1  0
  2 32  1  0
  7 33  1  0
  7 34  1  0
  8 35  1  0
  8 36  1  0
  9 37  1  0
 10 38  1  0
 10 39  1  0
 11 40  1  0
 11 41  1  0
 13 42  1  0
 13 43  1  0
 14 44  1  0
 14 45  1  0
 15 46  1  0
 15 47  1  0
 16 48  1  6
 17 49  1  0
 17 50  1  0
 18 51  1  0
 22 52  1  0
 23 53  1  0
 24 54  1  0
 25 55  1  0
M  END
>  <Ligand ID>  (1) 
LIG0001946

>  <Ligand>  (1) 
CHEMBL1916234

>  <SMILES>  (1) 
CCOC(=O)N1CCC(CC1)N1CCC[C@H](C1)NC(=O)c1ccccc1Cl

>  <CID>  (1) 
46873655.0

>  <ChEMBL ID>  (1) 
nan

>  <InChiKey>  (1) 
VSYRZNVEBYAZBF-OAHLLOKOSA-N

>  <InChi>  (1) 
InChI=1S/C20H28ClN3O3/c1-2-27-20(26)23-12-9-16(10-13-23)24-11-5-6-15(14-24)22-19(25)17-7-3-4-8-18(17)21/h3-4,7-8,15-16H,2,5-6,9-14H2,1H3,(H,22,25)/t15-/m1/s1

>  <IUPAC Name>  (1) 
ethyl 4-[(3R)-3-[(2-chlorobenzoyl)amino]piperidin-1-yl]piperidine-1-carboxylate

$$$$
