
     RDKit          3D

 55 58  0  0  0  0  0  0  0  0999 V2000
    6.3884    1.0528   -2.9801 N   0  0  0  0  0  0  0  0  0  0  0  0
    7.0187    0.9120   -2.0223 C   0  0  0  0  0  0  0  0  0  0  0  0
    7.8264    0.7552   -0.8211 C   0  0  0  0  0  0  0  0  0  0  0  0
    9.0547    1.3620   -0.7224 C   0  0  0  0  0  0  0  0  0  0  0  0
    9.7738    1.1968    0.3861 N   0  0  0  0  0  0  0  0  0  0  0  0
    9.3633    0.4654    1.4194 C   0  0  0  0  0  0  0  0  0  0  0  0
    8.1267   -0.1792    1.3890 C   0  0  0  0  0  0  0  0  0  0  0  0
    7.3834   -0.0107    0.2481 C   0  0  0  0  0  0  0  0  0  0  0  0
    6.0228   -0.6374    0.0768 C   0  0  0  0  0  0  0  0  0  0  0  0
    5.0990    0.3892    0.2873 O   0  0  0  0  0  0  0  0  0  0  0  0
    3.7489    0.2068    0.2156 C   0  0  0  0  0  0  0  0  0  0  0  0
    3.1053   -0.9732   -0.0652 C   0  0  0  0  0  0  0  0  0  0  0  0
    1.7569   -1.0451   -0.1116 N   0  0  0  0  0  0  0  0  0  0  0  0
    1.0054    0.0435    0.1169 C   0  0  0  0  0  0  0  0  0  0  0  0
    1.6191    1.2240    0.3969 N   0  0  0  0  0  0  0  0  0  0  0  0
    2.9398    1.3151    0.4472 C   0  0  0  0  0  0  0  0  0  0  0  0
   -0.4122    0.0546    0.0878 N   0  0  0  0  0  0  0  0  0  0  0  0
   -1.1497    1.2950    0.2683 C   0  0  0  0  0  0  0  0  0  0  0  0
   -2.3756    1.2653   -0.6413 C   0  0  0  0  0  0  0  0  0  0  0  0
   -3.2447    0.2068   -0.1279 N   0  0  0  0  0  0  0  0  0  0  0  0
   -2.6249   -0.9630    0.4046 C   0  0  0  0  0  0  0  0  0  0  0  0
   -1.2147   -1.1427   -0.1198 C   0  0  1  0  0  0  0  0  0  0  0  0
   -1.2036   -1.5630   -1.5650 C   0  0  0  0  0  0  0  0  0  0  0  0
   -4.6409    0.4469   -0.2079 C   0  0  0  0  0  0  0  0  0  0  0  0
   -4.9950    1.5438   -0.7120 O   0  0  0  0  0  0  0  0  0  0  0  0
   -5.5902   -0.4542    0.2352 O   0  0  0  0  0  0  0  0  0  0  0  0
   -6.9560   -0.3524    0.2198 C   0  0  0  0  0  0  0  0  0  0  0  0
   -7.6611    0.7375    0.9288 C   0  0  0  0  0  0  0  0  0  0  0  0
   -7.5388    1.5472   -0.1615 O   0  0  0  0  0  0  0  0  0  0  0  0
   -7.4790    0.4182   -0.9685 C   0  0  0  0  0  0  0  0  0  0  0  0
   -7.6314   -1.6984    0.4250 C   0  0  0  0  0  0  0  0  0  0  0  0
   -7.2173   -2.5181   -0.6091 F   0  0  0  0  0  0  0  0  0  0  0  0
   -8.9940   -1.5414    0.4906 F   0  0  0  0  0  0  0  0  0  0  0  0
   -7.1048   -2.2253    1.5997 F   0  0  0  0  0  0  0  0  0  0  0  0
    9.3790    1.9604   -1.5800 H   0  0  0  0  0  0  0  0  0  0  0  0
    9.9777    0.3674    2.2802 H   0  0  0  0  0  0  0  0  0  0  0  0
    7.7570   -0.7790    2.2001 H   0  0  0  0  0  0  0  0  0  0  0  0
    5.9462   -1.4611    0.8286 H   0  0  0  0  0  0  0  0  0  0  0  0
    5.9630   -1.0367   -0.9392 H   0  0  0  0  0  0  0  0  0  0  0  0
    3.7024   -1.8385   -0.2468 H   0  0  0  0  0  0  0  0  0  0  0  0
    3.3612    2.2974    0.6795 H   0  0  0  0  0  0  0  0  0  0  0  0
   -0.5160    2.1344   -0.0849 H   0  0  0  0  0  0  0  0  0  0  0  0
   -1.5005    1.4368    1.3029 H   0  0  0  0  0  0  0  0  0  0  0  0
   -2.8633    2.2496   -0.5529 H   0  0  0  0  0  0  0  0  0  0  0  0
   -2.1033    1.0804   -1.6931 H   0  0  0  0  0  0  0  0  0  0  0  0
   -2.5271   -0.8445    1.5123 H   0  0  0  0  0  0  0  0  0  0  0  0
   -3.1690   -1.9169    0.1915 H   0  0  0  0  0  0  0  0  0  0  0  0
   -0.7442   -1.9511    0.4731 H   0  0  0  0  0  0  0  0  0  0  0  0
   -0.3611   -1.0649   -2.0637 H   0  0  0  0  0  0  0  0  0  0  0  0
   -1.0511   -2.6581   -1.6350 H   0  0  0  0  0  0  0  0  0  0  0  0
   -2.1455   -1.3005   -2.0890 H   0  0  0  0  0  0  0  0  0  0  0  0
   -7.2850    1.0933    1.9007 H   0  0  0  0  0  0  0  0  0  0  0  0
   -8.7462    0.4771    1.0735 H   0  0  0  0  0  0  0  0  0  0  0  0
   -6.7702    0.5352   -1.8115 H   0  0  0  0  0  0  0  0  0  0  0  0
   -8.5025    0.0854   -1.2898 H   0  0  0  0  0  0  0  0  0  0  0  0
  1  2  3  0
  2  3  1  0
  3  4  2  0
  4  5  1  0
  5  6  2  0
  6  7  1  0
  7  8  2  0
  8  9  1  0
  9 10  1  0
 10 11  1  0
 11 12  2  0
 12 13  1  0
 13 14  2  0
 14 15  1  0
 15 16  2  0
 14 17  1  0
 17 18  1  0
 18 19  1  0
 19 20  1  0
 20 21  1  0
 21 22  1  0
 22 23  1  0
 20 24  1  0
 24 25  2  0
 24 26  1  0
 26 27  1  0
 27 28  1  0
 28 29  1  0
 29 30  1  0
 27 31  1  0
 31 32  1  0
 31 33  1  0
 31 34  1  0
  8  3  1  0
 16 11  1  0
 22 17  1  0
 30 27  1  0
  4 35  1  0
  6 36  1  0
  7 37  1  0
  9 38  1  0
  9 39  1  0
 12 40  1  0
 16 41  1  0
 18 42  1  0
 18 43  1  0
 19 44  1  0
 19 45  1  0
 21 46  1  0
 21 47  1  0
 22 48  1  1
 23 49  1  0
 23 50  1  0
 23 51  1  0
 28 52  1  0
 28 53  1  0
 30 54  1  0
 30 55  1  0
M  END
>  <Ligand ID>  (1) 
LIG0005297

>  <Ligand>  (1) 
SCHEMBL1447845

>  <SMILES>  (1) 
N#Cc1cnccc1COc1cnc(nc1)N1CCN(C[C@H]1C)C(=O)OC1(COC1)C(F)(F)F

>  <CID>  (1) 
58190317.0

>  <ChEMBL ID>  (1) 
nan

>  <InChiKey>  (1) 
GFSWORTTYOAWML-CQSZACIVSA-N

>  <InChi>  (1) 
InChI=1S/C21H21F3N6O4/c1-14-10-29(19(31)34-20(12-32-13-20)21(22,23)24)4-5-30(14)18-27-8-17(9-28-18)33-11-15-2-3-26-7-16(15)6-25/h2-3,7-9,14H,4-5,10-13H2,1H3/t14-/m1/s1

>  <IUPAC Name>  (1) 
[3-(trifluoromethyl)oxetan-3-yl] (3R)-4-[5-[(3-cyanopyridin-4-yl)methoxy]pyrimidin-2-yl]-3-methylpiperazine-1-carboxylate

$$$$
