
     RDKit          3D

 42 45  0  0  0  0  0  0  0  0999 V2000
    4.8677    0.5109   -0.3189 C   0  0  0  0  0  0  0  0  0  0  0  0
    3.6809    1.2935   -0.5265 N   0  0  0  0  0  0  0  0  0  0  0  0
    2.8246    0.8105   -1.5737 C   0  0  0  0  0  0  0  0  0  0  0  0
    2.1282   -0.4436   -1.0290 C   0  0  0  0  0  0  0  0  0  0  0  0
    1.2677    0.0779    0.0352 N   0  0  0  0  0  0  0  0  0  0  0  0
    1.9235    0.7638    1.1177 C   0  0  0  0  0  0  0  0  0  0  0  0
    3.0230    1.6798    0.6837 C   0  0  0  0  0  0  0  0  0  0  0  0
   -0.1443   -0.0925   -0.0129 C   0  0  0  0  0  0  0  0  0  0  0  0
   -0.7845    1.0286   -0.2174 N   0  0  0  0  0  0  0  0  0  0  0  0
   -2.1764    1.3145   -0.3340 C   0  0  0  0  0  0  0  0  0  0  0  0
   -2.4804    2.6587   -0.2570 C   0  0  0  0  0  0  0  0  0  0  0  0
   -3.8011    3.0699   -0.3566 C   0  0  0  0  0  0  0  0  0  0  0  0
   -4.1800    4.7909   -0.2570 Cl  0  0  0  0  0  0  0  0  0  0  0  0
   -4.7881    2.1272   -0.5308 C   0  0  0  0  0  0  0  0  0  0  0  0
   -4.5243    0.7698   -0.6128 C   0  0  0  0  0  0  0  0  0  0  0  0
   -3.1933    0.3990   -0.5090 C   0  0  0  0  0  0  0  0  0  0  0  0
   -3.0785   -1.0333   -0.6118 N   0  0  0  0  0  0  0  0  0  0  0  0
   -1.9987   -1.8130   -0.1097 C   0  0  0  0  0  0  0  0  0  0  0  0
   -0.7039   -1.4196    0.1601 C   0  0  0  0  0  0  0  0  0  0  0  0
    0.2558   -2.2820    0.6488 C   0  0  0  0  0  0  0  0  0  0  0  0
   -0.1426   -3.5899    0.8628 C   0  0  0  0  0  0  0  0  0  0  0  0
   -1.4395   -4.0036    0.5974 C   0  0  0  0  0  0  0  0  0  0  0  0
   -2.3878   -3.1296    0.1090 C   0  0  0  0  0  0  0  0  0  0  0  0
    5.7728    1.1263   -0.5481 H   0  0  0  0  0  0  0  0  0  0  0  0
    4.9113   -0.3572   -0.9879 H   0  0  0  0  0  0  0  0  0  0  0  0
    5.0096    0.1559    0.7136 H   0  0  0  0  0  0  0  0  0  0  0  0
    3.4782    0.5165   -2.4117 H   0  0  0  0  0  0  0  0  0  0  0  0
    2.0975    1.6095   -1.8172 H   0  0  0  0  0  0  0  0  0  0  0  0
    1.5846   -0.9323   -1.8350 H   0  0  0  0  0  0  0  0  0  0  0  0
    2.9558   -1.0693   -0.6158 H   0  0  0  0  0  0  0  0  0  0  0  0
    2.3205   -0.0066    1.8109 H   0  0  0  0  0  0  0  0  0  0  0  0
    1.2019    1.3660    1.7086 H   0  0  0  0  0  0  0  0  0  0  0  0
    3.7967    1.7541    1.4769 H   0  0  0  0  0  0  0  0  0  0  0  0
    2.6445    2.7131    0.5266 H   0  0  0  0  0  0  0  0  0  0  0  0
   -1.6576    3.3498   -0.1193 H   0  0  0  0  0  0  0  0  0  0  0  0
   -5.8144    2.4594   -0.6071 H   0  0  0  0  0  0  0  0  0  0  0  0
   -5.2813    0.0194   -0.7487 H   0  0  0  0  0  0  0  0  0  0  0  0
   -3.8470   -1.5499   -1.0932 H   0  0  0  0  0  0  0  0  0  0  0  0
    1.2594   -1.9301    0.8462 H   0  0  0  0  0  0  0  0  0  0  0  0
    0.5918   -4.2789    1.2441 H   0  0  0  0  0  0  0  0  0  0  0  0
   -1.7631   -5.0240    0.7607 H   0  0  0  0  0  0  0  0  0  0  0  0
   -3.4089   -3.4092   -0.1114 H   0  0  0  0  0  0  0  0  0  0  0  0
  1  2  1  0
  2  3  1  0
  3  4  1  0
  4  5  1  0
  5  6  1  0
  6  7  1  0
  5  8  1  0
  8  9  2  0
  9 10  1  0
 10 11  2  0
 11 12  1  0
 12 13  1  0
 12 14  2  0
 14 15  1  0
 15 16  2  0
 16 17  1  0
 17 18  1  0
 18 19  2  0
 19 20  1  0
 20 21  2  0
 21 22  1  0
 22 23  2  0
  7  2  1  0
 19  8  1  0
 16 10  1  0
 23 18  1  0
  1 24  1  0
  1 25  1  0
  1 26  1  0
  3 27  1  0
  3 28  1  0
  4 29  1  0
  4 30  1  0
  6 31  1  0
  6 32  1  0
  7 33  1  0
  7 34  1  0
 11 35  1  0
 14 36  1  0
 15 37  1  0
 17 38  1  0
 20 39  1  0
 21 40  1  0
 22 41  1  0
 23 42  1  0
M  END
>  <Ligand ID>  (1) 
LIG0004637

>  <Ligand>  (1) 
clozapine

>  <SMILES>  (1) 
CN1CCN(CC1)C1=Nc2cc(Cl)ccc2Nc2c1cccc2

>  <CID>  (1) 
135398737.0

>  <ChEMBL ID>  (1) 
nan

>  <InChiKey>  (1) 
QZUDBNBUXVUHMW-UHFFFAOYSA-N

>  <InChi>  (1) 
InChI=1S/C18H19ClN4/c1-22-8-10-23(11-9-22)18-14-4-2-3-5-15(14)20-16-7-6-13(19)12-17(16)21-18/h2-7,12,20H,8-11H2,1H3

>  <IUPAC Name>  (1) 
3-chloro-6-(4-methylpiperazin-1-yl)-11H-benzo[b][1,4]benzodiazepine

$$$$
