
     RDKit          3D

 84 86  0  0  0  0  0  0  0  0999 V2000
    4.3531   -0.8219   -1.0816 O   0  0  0  0  0  0  0  0  0  0  0  0
    4.1793    0.4259   -1.1258 C   0  0  0  0  0  0  0  0  0  0  0  0
    3.0209    0.9373   -0.4180 N   0  0  0  0  0  0  0  0  0  0  0  0
    2.2137   -0.0598    0.2351 C   0  0  2  0  0  0  0  0  0  0  0  0
    0.7559    0.1514    0.1856 C   0  0  0  0  0  0  0  0  0  0  0  0
    0.1918    1.2637    0.0617 O   0  0  0  0  0  0  0  0  0  0  0  0
   -0.0671   -1.0153    0.2851 N   0  0  0  0  0  0  0  0  0  0  0  0
   -1.4876   -1.0265    0.2990 C   0  0  1  0  0  0  0  0  0  0  0  0
   -2.0275   -0.4627   -1.0327 C   0  0  0  0  0  0  0  0  0  0  0  0
   -1.1758   -0.0946   -1.8965 O   0  0  0  0  0  0  0  0  0  0  0  0
   -3.4146   -0.3946   -1.1815 N   0  0  0  0  0  0  0  0  0  0  0  0
   -4.1489    0.1140   -2.3169 C   0  0  1  0  0  0  0  0  0  0  0  0
   -4.7799   -1.0859   -2.9891 C   0  0  0  0  0  0  0  0  0  0  0  0
   -5.4823   -0.8664   -4.0000 O   0  0  0  0  0  0  0  0  0  0  0  0
   -4.5823   -2.4017   -2.4903 N   0  0  0  0  0  0  0  0  0  0  0  0
   -5.2928    0.9609   -1.7846 C   0  0  0  0  0  0  0  0  0  0  0  0
   -6.2387    0.1817   -0.9423 C   0  0  0  0  0  0  0  0  0  0  0  0
   -7.3621    1.0888   -0.4159 C   0  0  0  0  0  0  0  0  0  0  0  0
   -8.0572    1.6340   -1.5588 N   0  0  0  0  0  0  0  0  0  0  0  0
   -9.3350    1.9240   -1.4709 C   0  0  0  0  0  0  0  0  0  0  0  0
   -9.9822    2.4626   -2.6289 N   0  0  0  0  0  0  0  0  0  0  0  0
  -10.0233    1.6959   -0.2511 N   0  0  0  0  0  0  0  0  0  0  0  0
   -2.1196   -2.3336    0.5696 C   0  0  0  0  0  0  0  0  0  0  0  0
   -1.7766   -2.9680    1.8651 C   0  0  0  0  0  0  0  0  0  0  0  0
   -2.5138   -2.6884    3.0065 C   0  0  0  0  0  0  0  0  0  0  0  0
   -2.2221   -3.2769    4.2313 C   0  0  0  0  0  0  0  0  0  0  0  0
   -1.1643   -4.1506    4.2502 C   0  0  0  0  0  0  0  0  0  0  0  0
   -0.3925   -4.4724    3.1565 C   0  0  0  0  0  0  0  0  0  0  0  0
   -0.7327   -3.8512    1.9590 C   0  0  0  0  0  0  0  0  0  0  0  0
    2.6373   -0.0800    1.7422 C   0  0  0  0  0  0  0  0  0  0  0  0
    2.4090    1.2592    2.3275 C   0  0  0  0  0  0  0  0  0  0  0  0
    3.2927    2.2736    2.3558 N   0  0  0  0  0  0  0  0  0  0  0  0
    2.6812    3.2839    2.9644 C   0  0  0  0  0  0  0  0  0  0  0  0
    1.4373    2.9652    3.3331 N   0  0  0  0  0  0  0  0  0  0  0  0
    1.2126    1.6717    2.9455 C   0  0  0  0  0  0  0  0  0  0  0  0
    5.1107    1.3150   -1.8599 C   0  0  0  0  0  0  0  0  0  0  0  0
    6.3189    0.5539   -2.3562 C   0  0  0  0  0  0  0  0  0  0  0  0
    7.1496   -0.0509   -1.3178 C   0  0  0  0  0  0  0  0  0  0  0  0
    6.8686   -1.1551   -0.7339 O   0  0  0  0  0  0  0  0  0  0  0  0
    8.3978    0.5681   -0.8529 C   0  0  0  0  0  0  0  0  0  0  0  0
    8.8570    1.7619   -1.3993 C   0  0  0  0  0  0  0  0  0  0  0  0
   10.0430    2.3405   -0.9504 C   0  0  0  0  0  0  0  0  0  0  0  0
   10.7980    1.7516    0.0468 C   0  0  0  0  0  0  0  0  0  0  0  0
   10.3541    0.5675    0.5976 C   0  0  0  0  0  0  0  0  0  0  0  0
    9.1820    0.0194    0.1361 C   0  0  0  0  0  0  0  0  0  0  0  0
   11.9499    2.3583    0.4533 F   0  0  0  0  0  0  0  0  0  0  0  0
    2.8290    1.9627   -0.4115 H   0  0  0  0  0  0  0  0  0  0  0  0
    2.4728   -1.0526   -0.1003 H   0  0  0  0  0  0  0  0  0  0  0  0
    0.4254   -1.9499    0.3403 H   0  0  0  0  0  0  0  0  0  0  0  0
   -1.8470   -0.2550    1.0054 H   0  0  0  0  0  0  0  0  0  0  0  0
   -4.0034   -0.7418   -0.3815 H   0  0  0  0  0  0  0  0  0  0  0  0
   -3.5432    0.6279   -3.0682 H   0  0  0  0  0  0  0  0  0  0  0  0
   -5.2202   -2.7576   -1.7255 H   0  0  0  0  0  0  0  0  0  0  0  0
   -3.8358   -3.0502   -2.8346 H   0  0  0  0  0  0  0  0  0  0  0  0
   -4.7995    1.7128   -1.1011 H   0  0  0  0  0  0  0  0  0  0  0  0
   -5.8266    1.4762   -2.5973 H   0  0  0  0  0  0  0  0  0  0  0  0
   -6.7904   -0.6067   -1.5187 H   0  0  0  0  0  0  0  0  0  0  0  0
   -5.8200   -0.2708   -0.0387 H   0  0  0  0  0  0  0  0  0  0  0  0
   -8.0395    0.4992    0.2435 H   0  0  0  0  0  0  0  0  0  0  0  0
   -6.8508    1.9176    0.1292 H   0  0  0  0  0  0  0  0  0  0  0  0
  -10.4427    1.8404   -3.3519 H   0  0  0  0  0  0  0  0  0  0  0  0
  -10.0080    3.5070   -2.7738 H   0  0  0  0  0  0  0  0  0  0  0  0
  -10.9193    1.1508   -0.2483 H   0  0  0  0  0  0  0  0  0  0  0  0
   -9.6653    2.0609    0.6868 H   0  0  0  0  0  0  0  0  0  0  0  0
   -1.9951   -3.0772   -0.2542 H   0  0  0  0  0  0  0  0  0  0  0  0
   -3.2415   -2.1852    0.6271 H   0  0  0  0  0  0  0  0  0  0  0  0
   -3.3235   -1.9906    2.8935 H   0  0  0  0  0  0  0  0  0  0  0  0
   -2.8037   -3.0569    5.1165 H   0  0  0  0  0  0  0  0  0  0  0  0
   -0.9176   -4.6236    5.1931 H   0  0  0  0  0  0  0  0  0  0  0  0
    0.4334   -5.1698    3.2321 H   0  0  0  0  0  0  0  0  0  0  0  0
   -0.1005   -4.1347    1.1100 H   0  0  0  0  0  0  0  0  0  0  0  0
    2.0573   -0.8919    2.1892 H   0  0  0  0  0  0  0  0  0  0  0  0
    3.6957   -0.3710    1.7266 H   0  0  0  0  0  0  0  0  0  0  0  0
    4.2611    2.2865    1.9831 H   0  0  0  0  0  0  0  0  0  0  0  0
    3.1367    4.2597    3.1448 H   0  0  0  0  0  0  0  0  0  0  0  0
    0.3136    1.0970    3.0839 H   0  0  0  0  0  0  0  0  0  0  0  0
    5.4438    2.1069   -1.1711 H   0  0  0  0  0  0  0  0  0  0  0  0
    4.6092    1.8191   -2.7194 H   0  0  0  0  0  0  0  0  0  0  0  0
    6.8723    1.1520   -3.1079 H   0  0  0  0  0  0  0  0  0  0  0  0
    5.8787   -0.3260   -2.9281 H   0  0  0  0  0  0  0  0  0  0  0  0
    8.3237    2.2820   -2.1777 H   0  0  0  0  0  0  0  0  0  0  0  0
   10.3606    3.2753   -1.4097 H   0  0  0  0  0  0  0  0  0  0  0  0
   10.9625    0.1203    1.3854 H   0  0  0  0  0  0  0  0  0  0  0  0
    8.8829   -0.9164    0.6086 H   0  0  0  0  0  0  0  0  0  0  0  0
  1  2  2  0
  2  3  1  0
  3  4  1  0
  4  5  1  0
  5  6  2  0
  5  7  1  0
  7  8  1  0
  8  9  1  0
  9 10  2  0
  9 11  1  0
 11 12  1  0
 12 13  1  0
 13 14  2  0
 13 15  1  0
 12 16  1  0
 16 17  1  0
 17 18  1  0
 18 19  1  0
 19 20  2  3
 20 21  1  0
 20 22  1  0
  8 23  1  0
 23 24  1  0
 24 25  2  0
 25 26  1  0
 26 27  2  0
 27 28  1  0
 28 29  2  0
  4 30  1  0
 30 31  1  0
 31 32  1  0
 32 33  1  0
 33 34  2  0
 34 35  1  0
  2 36  1  0
 36 37  1  0
 37 38  1  0
 38 39  2  0
 38 40  1  0
 40 41  2  0
 41 42  1  0
 42 43  2  0
 43 44  1  0
 44 45  2  0
 43 46  1  0
 29 24  1  0
 35 31  2  0
 45 40  1  0
  3 47  1  0
  4 48  1  6
  7 49  1  0
  8 50  1  1
 11 51  1  0
 12 52  1  6
 15 53  1  0
 15 54  1  0
 16 55  1  0
 16 56  1  0
 17 57  1  0
 17 58  1  0
 18 59  1  0
 18 60  1  0
 21 61  1  0
 21 62  1  0
 22 63  1  0
 22 64  1  0
 23 65  1  0
 23 66  1  0
 25 67  1  0
 26 68  1  0
 27 69  1  0
 28 70  1  0
 29 71  1  0
 30 72  1  0
 30 73  1  0
 32 74  1  0
 33 75  1  0
 35 76  1  0
 36 77  1  0
 36 78  1  0
 37 79  1  0
 37 80  1  0
 41 81  1  0
 42 82  1  0
 44 83  1  0
 45 84  1  0
M  END
>  <Ligand ID>  (1) 
LIG0002654

>  <Ligand>  (1) 
CHEMBL568836

>  <SMILES>  (1) 
O=C(N[C@H](C(=O)N[C@@H](C(=O)N[C@@H](C(=O)N)CCCN=C(N)N)Cc1ccccc1)Cc1[nH]cnc1)CCC(=O)c1ccc(cc1)F

>  <CID>  (1) 
45487296.0

>  <ChEMBL ID>  (1) 
nan

>  <InChiKey>  (1) 
GCGOAZRZURMILC-SDHSZQHLSA-N

>  <InChi>  (1) 
InChI=1S/C31H38FN9O5/c32-21-10-8-20(9-11-21)26(42)12-13-27(43)39-25(16-22-17-36-18-38-22)30(46)41-24(15-19-5-2-1-3-6-19)29(45)40-23(28(33)44)7-4-14-37-31(34)35/h1-3,5-6,8-11,17-18,23-25H,4,7,12-16H2,(H2,33,44)(H,36,38)(H,39,43)(H,40,45)(H,41,46)(H4,34,35,37)/t23-,24-,25+/m1/s1

>  <IUPAC Name>  (1) 
(2R)-5-(diaminomethylideneamino)-2-[[(2R)-2-[[(2S)-2-[[4-(4-fluorophenyl)-4-oxobutanoyl]amino]-3-(1H-imidazol-5-yl)propanoyl]amino]-3-phenylpropanoyl]amino]pentanamide

$$$$
