
     RDKit          3D

 64 66  0  0  0  0  0  0  0  0999 V2000
   -0.1505   -3.1188   -1.9999 N   0  0  0  0  0  0  0  0  0  0  0  0
   -0.7991   -2.1771   -1.7687 C   0  0  0  0  0  0  0  0  0  0  0  0
   -1.6097   -1.0121   -1.4848 C   0  0  0  0  0  0  0  0  0  0  0  0
   -2.9269   -0.9487   -1.9179 C   0  0  0  0  0  0  0  0  0  0  0  0
   -3.5168   -2.0103   -2.6828 N   0  0  0  0  0  0  0  0  0  0  0  0
   -3.6135    0.1612   -1.5911 N   0  0  0  0  0  0  0  0  0  0  0  0
   -3.1178    1.1812   -0.8908 C   0  0  0  0  0  0  0  0  0  0  0  0
   -1.8170    1.1741   -0.4324 C   0  0  0  0  0  0  0  0  0  0  0  0
   -1.0702    0.0634   -0.7429 C   0  0  0  0  0  0  0  0  0  0  0  0
    0.3571   -0.0834   -0.4547 C   0  0  0  0  0  0  0  0  0  0  0  0
    0.8938   -0.6504    0.6649 C   0  0  0  0  0  0  0  0  0  0  0  0
    2.2708   -0.7814    0.7126 C   0  0  0  0  0  0  0  0  0  0  0  0
    3.1080   -0.3615   -0.3154 C   0  0  0  0  0  0  0  0  0  0  0  0
    2.5359    0.2259   -1.4646 C   0  0  0  0  0  0  0  0  0  0  0  0
    1.1808    0.3538   -1.5166 C   0  0  0  0  0  0  0  0  0  0  0  0
    4.3929   -0.4904   -0.2625 O   0  0  0  0  0  0  0  0  0  0  0  0
    5.6714   -0.6196   -0.2076 C   0  0  0  0  0  0  0  0  0  0  0  0
    6.3544    0.1707    0.9002 C   0  0  0  0  0  0  0  0  0  0  0  0
    7.7900   -0.0912    0.8670 N   0  0  0  0  0  0  0  0  0  0  0  0
    8.7538    0.5204    1.6892 C   0  0  0  0  0  0  0  0  0  0  0  0
    8.4236    1.3867    2.5280 O   0  0  0  0  0  0  0  0  0  0  0  0
   10.1710    0.0678    1.4906 C   0  0  1  0  0  0  0  0  0  0  0  0
   10.1785   -1.3000    0.9876 N   0  0  0  0  0  0  0  0  0  0  0  0
   10.7976    0.9986    0.4558 C   0  0  0  0  0  0  0  0  0  0  0  0
   -1.2378    2.2171    0.3188 C   0  0  0  0  0  0  0  0  0  0  0  0
   -0.7667    3.0895    0.9244 N   0  0  0  0  0  0  0  0  0  0  0  0
   -4.1607    2.5908   -0.6127 S   0  0  0  0  0  0  0  0  0  0  0  0
   -5.7037    2.4928   -1.5169 C   0  0  0  0  0  0  0  0  0  0  0  0
   -6.4370    1.2722   -1.1439 C   0  0  0  0  0  0  0  0  0  0  0  0
   -6.4305    0.2313   -2.0685 C   0  0  0  0  0  0  0  0  0  0  0  0
   -7.0921   -0.9315   -1.7192 C   0  0  0  0  0  0  0  0  0  0  0  0
   -7.7324   -1.0592   -0.5117 N   0  0  0  0  0  0  0  0  0  0  0  0
   -7.7338   -0.0485    0.3715 C   0  0  0  0  0  0  0  0  0  0  0  0
   -7.0787    1.1347    0.0564 C   0  0  0  0  0  0  0  0  0  0  0  0
   -8.3897   -0.2016    1.6633 C   0  0  0  0  0  0  0  0  0  0  0  0
   -8.3541    0.8343    2.4252 O   0  0  0  0  0  0  0  0  0  0  0  0
   -9.0276   -1.3536    2.1185 N   0  0  0  0  0  0  0  0  0  0  0  0
   -9.6496   -1.4376    3.4372 C   0  0  0  0  0  0  0  0  0  0  0  0
   -3.6019   -1.8470   -3.7152 H   0  0  0  0  0  0  0  0  0  0  0  0
   -3.8175   -2.8570   -2.1810 H   0  0  0  0  0  0  0  0  0  0  0  0
    0.2289   -0.9773    1.4508 H   0  0  0  0  0  0  0  0  0  0  0  0
    2.7524   -1.2302    1.5770 H   0  0  0  0  0  0  0  0  0  0  0  0
    3.1305    0.5703   -2.2947 H   0  0  0  0  0  0  0  0  0  0  0  0
    0.7305    0.8029   -2.4041 H   0  0  0  0  0  0  0  0  0  0  0  0
    6.1674   -0.3055   -1.1990 H   0  0  0  0  0  0  0  0  0  0  0  0
    6.1086   -1.6509   -0.0858 H   0  0  0  0  0  0  0  0  0  0  0  0
    6.2331    1.2403    0.6579 H   0  0  0  0  0  0  0  0  0  0  0  0
    5.8702   -0.0496    1.8524 H   0  0  0  0  0  0  0  0  0  0  0  0
    8.1217   -0.7999    0.1809 H   0  0  0  0  0  0  0  0  0  0  0  0
   10.7507    0.1045    2.4154 H   0  0  0  0  0  0  0  0  0  0  0  0
   11.0817   -1.7873    1.1929 H   0  0  0  0  0  0  0  0  0  0  0  0
    9.4581   -1.8822    1.5189 H   0  0  0  0  0  0  0  0  0  0  0  0
   10.6772    2.0324    0.8242 H   0  0  0  0  0  0  0  0  0  0  0  0
   10.2021    0.9096   -0.4851 H   0  0  0  0  0  0  0  0  0  0  0  0
   11.8509    0.7651    0.2743 H   0  0  0  0  0  0  0  0  0  0  0  0
   -6.3264    3.3901   -1.2134 H   0  0  0  0  0  0  0  0  0  0  0  0
   -5.5356    2.5781   -2.6448 H   0  0  0  0  0  0  0  0  0  0  0  0
   -5.9504    0.3269   -3.0463 H   0  0  0  0  0  0  0  0  0  0  0  0
   -7.1029   -1.7556   -2.4427 H   0  0  0  0  0  0  0  0  0  0  0  0
   -7.0640    1.9593    0.7173 H   0  0  0  0  0  0  0  0  0  0  0  0
   -9.0497   -2.1932    1.4734 H   0  0  0  0  0  0  0  0  0  0  0  0
  -10.7082   -1.6755    3.3046 H   0  0  0  0  0  0  0  0  0  0  0  0
   -9.1036   -2.1814    4.0758 H   0  0  0  0  0  0  0  0  0  0  0  0
   -9.5673   -0.4084    3.8907 H   0  0  0  0  0  0  0  0  0  0  0  0
  1  2  3  0
  2  3  1  0
  3  4  2  0
  4  5  1  0
  4  6  1  0
  6  7  2  0
  7  8  1  0
  8  9  2  0
  9 10  1  0
 10 11  2  0
 11 12  1  0
 12 13  2  0
 13 14  1  0
 14 15  2  0
 13 16  1  0
 16 17  1  0
 17 18  1  0
 18 19  1  0
 19 20  1  0
 20 21  2  0
 20 22  1  0
 22 23  1  0
 22 24  1  0
  8 25  1  0
 25 26  3  0
  7 27  1  0
 27 28  1  0
 28 29  1  0
 29 30  2  0
 30 31  1  0
 31 32  2  0
 32 33  1  0
 33 34  2  0
 33 35  1  0
 35 36  2  0
 35 37  1  0
 37 38  1  0
  9  3  1  0
 15 10  1  0
 34 29  1  0
  5 39  1  0
  5 40  1  0
 11 41  1  0
 12 42  1  0
 14 43  1  0
 15 44  1  0
 17 45  1  0
 17 46  1  0
 18 47  1  0
 18 48  1  0
 19 49  1  0
 22 50  1  1
 23 51  1  0
 23 52  1  0
 24 53  1  0
 24 54  1  0
 24 55  1  0
 28 56  1  0
 28 57  1  0
 30 58  1  0
 31 59  1  0
 34 60  1  0
 37 61  1  0
 38 62  1  0
 38 63  1  0
 38 64  1  0
M  END
>  <Ligand ID>  (1) 
LIG0002135

>  <Ligand>  (1) 
SCHEMBL3354137

>  <SMILES>  (1) 
N#Cc1c(N)nc(c(c1c1ccc(cc1)OCCNC(=O)[C@@H](N)C)C#N)SCc1ccnc(c1)C(=O)NC

>  <CID>  (1) 
66633974.0

>  <ChEMBL ID>  (1) 
nan

>  <InChiKey>  (1) 
FAOCUWOLHBKWBE-HNNXBMFYSA-N

>  <InChi>  (1) 
InChI=1S/C26H26N8O3S/c1-15(29)24(35)33-9-10-37-18-5-3-17(4-6-18)22-19(12-27)23(30)34-26(20(22)13-28)38-14-16-7-8-32-21(11-16)25(36)31-2/h3-8,11,15H,9-10,14,29H2,1-2H3,(H2,30,34)(H,31,36)(H,33,35)/t15-/m0/s1

>  <IUPAC Name>  (1) 
4-[[6-amino-4-[4-[2-[[(2S)-2-aminopropanoyl]amino]ethoxy]phenyl]-3,5-dicyanopyridin-2-yl]sulfanylmethyl]-N-methylpyridine-2-carboxamide

$$$$
