
     RDKit          3D

 47 49  0  0  0  0  0  0  0  0999 V2000
   -2.0513    0.6637   -2.4335 O   0  0  0  0  0  0  0  0  0  0  0  0
   -2.0836    1.0892   -1.1143 C   0  0  2  0  0  0  0  0  0  0  0  0
   -1.7657   -0.0791   -0.2053 C   0  0  1  0  0  0  0  0  0  0  0  0
   -0.5173    0.2369    0.5737 C   0  0  0  0  0  0  0  0  0  0  0  0
    0.5647    0.4328   -0.3009 O   0  0  0  0  0  0  0  0  0  0  0  0
    1.9907    0.7892    0.4933 P   0  0  0  0  0  0  0  0  0  0  0  0
    2.0885    2.3059    0.6109 O   0  0  0  0  0  0  0  0  0  0  0  0
    3.3474    0.2601   -0.3821 O   0  0  0  0  0  0  0  0  0  0  0  0
    3.7697   -1.2661    0.1488 P   0  0  0  0  0  0  0  0  0  0  0  0
    3.8937   -2.2206   -1.0354 O   0  0  0  0  0  0  0  0  0  0  0  0
    5.2061   -1.2928    1.0765 O   0  0  0  0  0  0  0  0  0  0  0  0
    6.4084   -0.7401    0.6638 C   0  0  0  0  0  0  0  0  0  0  0  0
    6.4767    0.5430    0.1509 C   0  0  0  0  0  0  0  0  0  0  0  0
    7.7135    1.0308   -0.2421 C   0  0  0  0  0  0  0  0  0  0  0  0
    8.8331    0.2410   -0.1163 C   0  0  0  0  0  0  0  0  0  0  0  0
    8.7636   -1.0440    0.3975 C   0  0  0  0  0  0  0  0  0  0  0  0
    7.5325   -1.5443    0.7944 C   0  0  0  0  0  0  0  0  0  0  0  0
   10.2418   -1.9726    0.5189 Cl  0  0  0  0  0  0  0  0  0  0  0  0
    2.5412   -1.9256    1.1236 O   0  0  0  0  0  0  0  0  0  0  0  0
    1.9580    0.0776    2.0209 O   0  0  0  0  0  0  0  0  0  0  0  0
   -2.8711   -0.2827    0.6178 O   0  0  0  0  0  0  0  0  0  0  0  0
   -3.9247   -0.0109   -0.2465 C   0  0  2  0  0  0  0  0  0  0  0  0
   -3.5581    1.3348   -0.7667 C   0  0  2  0  0  0  0  0  0  0  0  0
   -4.2873    1.7358   -1.8698 O   0  0  0  0  0  0  0  0  0  0  0  0
   -5.2234   -0.1515    0.3073 N   0  0  0  0  0  0  0  0  0  0  0  0
   -6.0376   -1.1663   -0.1079 C   0  0  0  0  0  0  0  0  0  0  0  0
   -7.3066   -1.3372    0.4057 C   0  0  0  0  0  0  0  0  0  0  0  0
   -7.7767   -0.4620    1.3682 C   0  0  0  0  0  0  0  0  0  0  0  0
   -8.9433   -0.6055    1.8515 O   0  0  0  0  0  0  0  0  0  0  0  0
   -6.9558    0.5371    1.7671 N   0  0  0  0  0  0  0  0  0  0  0  0
   -5.7075    0.6715    1.2341 C   0  0  0  0  0  0  0  0  0  0  0  0
   -5.0337    1.6338    1.6785 O   0  0  0  0  0  0  0  0  0  0  0  0
   -1.6091   -0.2085   -2.4866 H   0  0  0  0  0  0  0  0  0  0  0  0
   -1.4578    1.9762   -0.9126 H   0  0  0  0  0  0  0  0  0  0  0  0
   -1.5410   -1.0004   -0.8106 H   0  0  0  0  0  0  0  0  0  0  0  0
   -0.3185   -0.5259    1.3299 H   0  0  0  0  0  0  0  0  0  0  0  0
   -0.6877    1.1999    1.1189 H   0  0  0  0  0  0  0  0  0  0  0  0
    5.5938    1.1579    0.0548 H   0  0  0  0  0  0  0  0  0  0  0  0
    7.7804    2.0486   -0.6510 H   0  0  0  0  0  0  0  0  0  0  0  0
    9.7825    0.6450   -0.4296 H   0  0  0  0  0  0  0  0  0  0  0  0
    7.4831   -2.5420    1.1926 H   0  0  0  0  0  0  0  0  0  0  0  0
   -3.7980   -0.7198   -1.1152 H   0  0  0  0  0  0  0  0  0  0  0  0
   -3.5536    2.1561   -0.0536 H   0  0  0  0  0  0  0  0  0  0  0  0
   -4.0565    1.1562   -2.6214 H   0  0  0  0  0  0  0  0  0  0  0  0
   -5.6485   -1.8546   -0.8748 H   0  0  0  0  0  0  0  0  0  0  0  0
   -7.9346   -2.1589    0.0534 H   0  0  0  0  0  0  0  0  0  0  0  0
   -7.3206    1.1885    2.4911 H   0  0  0  0  0  0  0  0  0  0  0  0
  1  2  1  0
  2  3  1  0
  3  4  1  0
  4  5  1  0
  5  6  1  0
  6  7  2  0
  6  8  1  0
  8  9  1  0
  9 10  2  0
  9 11  1  0
 11 12  1  0
 12 13  2  0
 13 14  1  0
 14 15  2  0
 15 16  1  0
 16 17  2  0
 16 18  1  0
  9 19  1  0
  6 20  1  0
  3 21  1  0
 21 22  1  0
 22 23  1  0
 23 24  1  0
 22 25  1  0
 25 26  1  0
 26 27  2  0
 27 28  1  0
 28 29  2  0
 28 30  1  0
 30 31  1  0
 31 32  2  0
 23  2  1  0
 31 25  1  0
 17 12  1  0
  1 33  1  0
  2 34  1  6
  3 35  1  6
  4 36  1  0
  4 37  1  0
 13 38  1  0
 14 39  1  0
 15 40  1  0
 17 41  1  0
 22 42  1  6
 23 43  1  1
 24 44  1  0
 26 45  1  0
 27 46  1  0
 30 47  1  0
M  CHG  2  19  -1  20  -1
M  END
>  <Ligand ID>  (1) 
LIG0005849

>  <Ligand>  (1) 
BDBM50303350

>  <SMILES>  (1) 
O[C@@H]1[C@@H](COP(=O)(OP(=O)(Oc2cccc(c2)Cl)[O-])[O-])O[C@H]([C@@H]1O)n1ccc(=O)[nH]c1=O

>  <CID>  (1) 
91933960.0

>  <ChEMBL ID>  (1) 
nan

>  <InChiKey>  (1) 
AGGOCBBDZCKITM-FMKGYKFTSA-L

>  <InChi>  (1) 
InChI=1S/C15H17ClN2O12P2/c16-8-2-1-3-9(6-8)29-32(25,26)30-31(23,24)27-7-10-12(20)13(21)14(28-10)18-5-4-11(19)17-15(18)22/h1-6,10,12-14,20-21H,7H2,(H,23,24)(H,25,26)(H,17,19,22)/p-2/t10-,12-,13-,14-/m1/s1

>  <IUPAC Name>  (1) 
[(3-chlorophenoxy)-oxidophosphoryl] [(2R,3S,4R,5R)-5-(2,4-dioxopyrimidin-1-yl)-3,4-dihydroxyoxolan-2-yl]methyl phosphate

$$$$
