
     RDKit          3D

124126  0  0  0  0  0  0  0  0999 V2000
    9.0420   -0.4227   -4.2817 N   0  0  0  0  0  0  0  0  0  0  0  0
    9.6603    0.7644   -3.7323 C   0  0  0  0  0  0  0  0  0  0  0  0
    8.8933    1.2438   -2.5111 C   0  0  0  0  0  0  0  0  0  0  0  0
    8.8322    0.1932   -1.4072 C   0  0  1  0  0  0  0  0  0  0  0  0
   10.1571   -0.1917   -0.8983 C   0  0  0  0  0  0  0  0  0  0  0  0
   11.0802   -0.7079   -1.5518 O   0  0  0  0  0  0  0  0  0  0  0  0
   10.4429    0.0444    0.5022 N   0  0  0  0  0  0  0  0  0  0  0  0
   11.7441   -0.3401    1.0118 C   0  0  0  0  0  0  0  0  0  0  0  0
   12.7822    0.4453    0.2782 C   0  0  0  0  0  0  0  0  0  0  0  0
   14.0281    0.2875    0.5327 O   0  0  0  0  0  0  0  0  0  0  0  0
   12.3778    1.3961   -0.7323 N   0  0  0  0  0  0  0  0  0  0  0  0
    7.9356    0.6466   -0.3478 N   0  0  0  0  0  0  0  0  0  0  0  0
    6.6513    0.0501   -0.1194 C   0  0  0  0  0  0  0  0  0  0  0  0
    6.2167   -0.9104   -0.8182 O   0  0  0  0  0  0  0  0  0  0  0  0
    5.8593    0.6337    1.0045 C   0  0  2  0  0  0  0  0  0  0  0  0
    6.5406    0.4472    2.3245 C   0  0  0  0  0  0  0  0  0  0  0  0
    6.2498   -0.9716    2.6578 C   0  0  0  0  0  0  0  0  0  0  0  0
    5.0644   -1.3834    1.7867 C   0  0  0  0  0  0  0  0  0  0  0  0
    4.6424   -0.1458    1.1657 N   0  0  0  0  0  0  0  0  0  0  0  0
    3.3836    0.3329    0.7575 C   0  0  0  0  0  0  0  0  0  0  0  0
    3.1869    1.4806    0.2785 O   0  0  0  0  0  0  0  0  0  0  0  0
    2.0945   -0.4835    0.8507 C   0  0  2  0  0  0  0  0  0  0  0  0
    2.2500   -1.6685    0.0202 C   0  0  0  0  0  0  0  0  0  0  0  0
    1.0157   -2.8084   -0.4350 S   0  0  0  0  0  0  0  0  0  0  0  0
   -0.3180   -3.5652    0.9006 S   0  0  0  0  0  0  0  0  0  0  0  0
   -1.9898   -2.7423    0.7874 C   0  0  0  0  0  0  0  0  0  0  0  0
   -2.6002   -3.2478   -0.4746 C   0  0  2  0  0  0  0  0  0  0  0  0
   -1.6886   -2.8900   -1.5774 N   0  0  0  0  0  0  0  0  0  0  0  0
   -3.9499   -2.9296   -0.8839 C   0  0  0  0  0  0  0  0  0  0  0  0
   -4.1019   -2.5237   -2.0857 O   0  0  0  0  0  0  0  0  0  0  0  0
   -5.1522   -2.9929   -0.1522 N   0  0  0  0  0  0  0  0  0  0  0  0
   -6.4808   -2.6223   -0.8049 C   0  0  1  0  0  0  0  0  0  0  0  0
   -7.4233   -3.6162   -0.3630 C   0  0  0  0  0  0  0  0  0  0  0  0
   -8.8211   -3.5049   -0.8463 C   0  0  0  0  0  0  0  0  0  0  0  0
   -9.8699   -2.8442   -0.2278 C   0  0  0  0  0  0  0  0  0  0  0  0
  -11.0038   -2.9923   -1.0007 C   0  0  0  0  0  0  0  0  0  0  0  0
  -10.5965   -3.7492   -2.0830 C   0  0  0  0  0  0  0  0  0  0  0  0
   -9.3397   -4.0230   -1.9566 O   0  0  0  0  0  0  0  0  0  0  0  0
   -6.6269   -1.1878   -0.6217 C   0  0  0  0  0  0  0  0  0  0  0  0
   -5.6309   -0.6857   -0.0158 O   0  0  0  0  0  0  0  0  0  0  0  0
   -7.5873   -0.2016   -0.9326 N   0  0  0  0  0  0  0  0  0  0  0  0
   -7.2792    1.2511   -0.7722 C   0  0  2  0  0  0  0  0  0  0  0  0
   -5.8045    1.4166   -1.0831 C   0  0  0  0  0  0  0  0  0  0  0  0
   -5.3844    1.4703   -2.2865 O   0  0  0  0  0  0  0  0  0  0  0  0
   -4.7961    1.5348   -0.1112 N   0  0  0  0  0  0  0  0  0  0  0  0
   -3.3844    1.3393   -0.1810 C   0  0  2  0  0  0  0  0  0  0  0  0
   -2.5464    2.1818    0.6456 C   0  0  0  0  0  0  0  0  0  0  0  0
   -2.7175    3.3580    0.9730 O   0  0  0  0  0  0  0  0  0  0  0  0
   -1.3574    1.5730    1.1862 N   0  0  0  0  0  0  0  0  0  0  0  0
   -0.3513    2.2234    1.9703 C   0  0  2  0  0  0  0  0  0  0  0  0
    0.8630    1.3535    1.7991 C   0  0  0  0  0  0  0  0  0  0  0  0
    1.7950    1.4215    2.5632 O   0  0  0  0  0  0  0  0  0  0  0  0
    0.9802    0.3960    0.6940 N   0  0  0  0  0  0  0  0  0  0  0  0
   -0.6346    2.0361    3.4844 C   0  0  0  0  0  0  0  0  0  0  0  0
    0.4034    2.7415    4.2683 C   0  0  0  0  0  0  0  0  0  0  0  0
    0.4603    2.4154    5.5078 O   0  0  0  0  0  0  0  0  0  0  0  0
    1.3009    3.7039    3.7899 N   0  0  0  0  0  0  0  0  0  0  0  0
   -2.7871    1.0475   -1.5106 C   0  0  0  0  0  0  0  0  0  0  0  0
   -2.7912    1.9997   -2.6147 C   0  0  0  0  0  0  0  0  0  0  0  0
   -2.7787    3.2458   -2.5510 O   0  0  0  0  0  0  0  0  0  0  0  0
   -2.8201    1.4046   -3.9444 N   0  0  0  0  0  0  0  0  0  0  0  0
   -7.7669    1.9678    0.3715 C   0  0  2  0  0  0  0  0  0  0  0  0
   -9.2729    1.9564    0.4954 C   0  0  0  0  0  0  0  0  0  0  0  0
   -9.8949    0.6260    0.6814 C   0  0  0  0  0  0  0  0  0  0  0  0
   -7.4158    3.4500    0.2108 C   0  0  0  0  0  0  0  0  0  0  0  0
    9.1225   -0.4716   -5.3321 H   0  0  0  0  0  0  0  0  0  0  0  0
    9.5830   -1.2449   -3.9110 H   0  0  0  0  0  0  0  0  0  0  0  0
    9.6337    1.5540   -4.5280 H   0  0  0  0  0  0  0  0  0  0  0  0
   10.7168    0.6177   -3.4520 H   0  0  0  0  0  0  0  0  0  0  0  0
    9.4108    2.1854   -2.1451 H   0  0  0  0  0  0  0  0  0  0  0  0
    7.8529    1.4341   -2.8323 H   0  0  0  0  0  0  0  0  0  0  0  0
    8.2710   -0.6527   -1.9061 H   0  0  0  0  0  0  0  0  0  0  0  0
    9.7720    0.4701    1.1609 H   0  0  0  0  0  0  0  0  0  0  0  0
   11.8304   -0.1856    2.1039 H   0  0  0  0  0  0  0  0  0  0  0  0
   11.9661   -1.4345    0.8122 H   0  0  0  0  0  0  0  0  0  0  0  0
   13.0380    1.5914   -1.5289 H   0  0  0  0  0  0  0  0  0  0  0  0
   11.4453    1.8610   -0.6219 H   0  0  0  0  0  0  0  0  0  0  0  0
    8.2206    1.4307    0.2941 H   0  0  0  0  0  0  0  0  0  0  0  0
    5.6663    1.7080    0.7797 H   0  0  0  0  0  0  0  0  0  0  0  0
    6.0310    1.1119    3.0606 H   0  0  0  0  0  0  0  0  0  0  0  0
    7.6217    0.7103    2.3008 H   0  0  0  0  0  0  0  0  0  0  0  0
    5.9538   -1.1361    3.7044 H   0  0  0  0  0  0  0  0  0  0  0  0
    7.1370   -1.6256    2.4688 H   0  0  0  0  0  0  0  0  0  0  0  0
    5.4627   -2.1212    1.0641 H   0  0  0  0  0  0  0  0  0  0  0  0
    4.2710   -1.8475    2.4244 H   0  0  0  0  0  0  0  0  0  0  0  0
    2.0869   -0.8075    1.9782 H   0  0  0  0  0  0  0  0  0  0  0  0
    2.6587   -1.2109   -1.0017 H   0  0  0  0  0  0  0  0  0  0  0  0
    3.2247   -2.2397    0.3298 H   0  0  0  0  0  0  0  0  0  0  0  0
   -1.9264   -1.6770    0.9241 H   0  0  0  0  0  0  0  0  0  0  0  0
   -2.5381   -3.1859    1.6637 H   0  0  0  0  0  0  0  0  0  0  0  0
   -2.5810   -4.4103   -0.4468 H   0  0  0  0  0  0  0  0  0  0  0  0
   -1.5239   -3.7014   -2.1737 H   0  0  0  0  0  0  0  0  0  0  0  0
   -1.9789   -2.0484   -2.0844 H   0  0  0  0  0  0  0  0  0  0  0  0
   -5.1121   -3.2960    0.8079 H   0  0  0  0  0  0  0  0  0  0  0  0
   -6.2881   -2.7424   -1.9219 H   0  0  0  0  0  0  0  0  0  0  0  0
   -7.4156   -3.8134    0.7547 H   0  0  0  0  0  0  0  0  0  0  0  0
   -7.0787   -4.6274   -0.7932 H   0  0  0  0  0  0  0  0  0  0  0  0
   -9.8320   -2.3093    0.6999 H   0  0  0  0  0  0  0  0  0  0  0  0
  -12.0099   -2.6244   -0.8564 H   0  0  0  0  0  0  0  0  0  0  0  0
  -11.1848   -4.0916   -2.9356 H   0  0  0  0  0  0  0  0  0  0  0  0
   -8.4806   -0.5442   -1.2854 H   0  0  0  0  0  0  0  0  0  0  0  0
   -7.7402    1.6702   -1.7258 H   0  0  0  0  0  0  0  0  0  0  0  0
   -5.1640    1.8164    0.8503 H   0  0  0  0  0  0  0  0  0  0  0  0
   -3.2858    0.2627    0.3249 H   0  0  0  0  0  0  0  0  0  0  0  0
   -1.2822    0.5674    0.9988 H   0  0  0  0  0  0  0  0  0  0  0  0
   -0.2056    3.2688    1.7478 H   0  0  0  0  0  0  0  0  0  0  0  0
    0.2924    0.4890   -0.0297 H   0  0  0  0  0  0  0  0  0  0  0  0
   -1.6615    2.3420    3.7549 H   0  0  0  0  0  0  0  0  0  0  0  0
   -0.5187    0.9430    3.6748 H   0  0  0  0  0  0  0  0  0  0  0  0
    2.1666    3.9832    4.3214 H   0  0  0  0  0  0  0  0  0  0  0  0
    1.1539    4.2065    2.8616 H   0  0  0  0  0  0  0  0  0  0  0  0
   -3.3129    0.0756   -1.8616 H   0  0  0  0  0  0  0  0  0  0  0  0
   -1.7310    0.6470   -1.3100 H   0  0  0  0  0  0  0  0  0  0  0  0
   -1.8810    1.2957   -4.4677 H   0  0  0  0  0  0  0  0  0  0  0  0
   -3.7087    1.0674   -4.3996 H   0  0  0  0  0  0  0  0  0  0  0  0
   -7.3035    1.6685    1.3563 H   0  0  0  0  0  0  0  0  0  0  0  0
   -9.6186    2.6063    1.3515 H   0  0  0  0  0  0  0  0  0  0  0  0
   -9.7449    2.4400   -0.4164 H   0  0  0  0  0  0  0  0  0  0  0  0
   -9.1837   -0.1468    1.0554 H   0  0  0  0  0  0  0  0  0  0  0  0
  -10.3514    0.2777   -0.2520 H   0  0  0  0  0  0  0  0  0  0  0  0
  -10.7429    0.6550    1.4362 H   0  0  0  0  0  0  0  0  0  0  0  0
   -7.5771    3.7996   -0.8420 H   0  0  0  0  0  0  0  0  0  0  0  0
   -6.4430    3.6943    0.6219 H   0  0  0  0  0  0  0  0  0  0  0  0
   -8.1522    4.0182    0.8384 H   0  0  0  0  0  0  0  0  0  0  0  0
  1  2  1  0
  2  3  1  0
  3  4  1  0
  4  5  1  0
  5  6  2  0
  5  7  1  0
  7  8  1  0
  8  9  1  0
  9 10  2  0
  9 11  1  0
  4 12  1  0
 12 13  1  0
 13 14  2  0
 13 15  1  0
 15 16  1  0
 16 17  1  0
 17 18  1  0
 18 19  1  0
 19 20  1  0
 20 21  2  0
 20 22  1  0
 22 23  1  0
 23 24  1  0
 24 25  1  0
 25 26  1  0
 26 27  1  0
 27 28  1  0
 27 29  1  0
 29 30  2  0
 29 31  1  0
 31 32  1  0
 32 33  1  0
 33 34  1  0
 34 35  2  0
 35 36  1  0
 36 37  2  0
 37 38  1  0
 32 39  1  0
 39 40  2  0
 39 41  1  0
 41 42  1  0
 42 43  1  0
 43 44  2  0
 43 45  1  0
 45 46  1  0
 46 47  1  0
 47 48  2  0
 47 49  1  0
 49 50  1  0
 50 51  1  0
 51 52  2  0
 51 53  1  0
 50 54  1  0
 54 55  1  0
 55 56  2  0
 55 57  1  0
 46 58  1  0
 58 59  1  0
 59 60  2  0
 59 61  1  0
 42 62  1  0
 62 63  1  0
 63 64  1  0
 62 65  1  0
 19 15  1  0
 53 22  1  0
 38 34  1  0
  1 66  1  0
  1 67  1  0
  2 68  1  0
  2 69  1  0
  3 70  1  0
  3 71  1  0
  4 72  1  6
  7 73  1  0
  8 74  1  0
  8 75  1  0
 11 76  1  0
 11 77  1  0
 12 78  1  0
 15 79  1  6
 16 80  1  0
 16 81  1  0
 17 82  1  0
 17 83  1  0
 18 84  1  0
 18 85  1  0
 22 86  1  1
 23 87  1  0
 23 88  1  0
 26 89  1  0
 26 90  1  0
 27 91  1  1
 28 92  1  0
 28 93  1  0
 31 94  1  0
 32 95  1  6
 33 96  1  0
 33 97  1  0
 35 98  1  0
 36 99  1  0
 37100  1  0
 41101  1  0
 42102  1  6
 45103  1  0
 46104  1  1
 49105  1  0
 50106  1  1
 53107  1  0
 54108  1  0
 54109  1  0
 57110  1  0
 57111  1  0
 58112  1  0
 58113  1  0
 61114  1  0
 61115  1  0
 62116  1  1
 63117  1  0
 63118  1  0
 64119  1  0
 64120  1  0
 64121  1  0
 65122  1  0
 65123  1  0
 65124  1  0
M  END
>  <Ligand ID>  (1) 
LIG0001608

>  <Ligand>  (1) 
CHEMBL1817759

>  <SMILES>  (1) 
NCC[C@@H](C(=O)NCC(=O)N)NC(=O)[C@@H]1CCCN1C(=O)[C@@H]1CSSC[C@H](N)C(=O)N[C@@H](Cc2ccco2)C(=O)N[C@H](C(=O)N[C@H](C(=O)N[C@H](C(=O)N1)CC(=O)N)CC(=O)N)[C@H](CC)C

>  <CID>  (1) 
53362731.0

>  <ChEMBL ID>  (1) 
nan

>  <InChiKey>  (1) 
GYGFTCDERGFHKB-URPKOMAESA-N

>  <InChi>  (1) 
InChI=1S/C38H59N13O12S2/c1-3-18(2)30-37(61)48-24(14-28(42)53)33(57)47-23(13-27(41)52)34(58)49-25(17-65-64-16-20(40)31(55)46-22(35(59)50-30)12-19-6-5-11-63-19)38(62)51-10-4-7-26(51)36(60)45-21(8-9-39)32(56)44-15-29(43)54/h5-6,11,18,20-26,30H,3-4,7-10,12-17,39-40H2,1-2H3,(H2,41,52)(H2,42,53)(H2,43,54)(H,44,56)(H,45,60)(H,46,55)(H,47,57)(H,48,61)(H,49,58)(H,50,59)/t18-,20-,21-,22-,23-,24-,25-,26-,30-/m0/s1

>  <IUPAC Name>  (1) 
(2S)-N-[(2S)-4-amino-1-[(2-amino-2-oxoethyl)amino]-1-oxobutan-2-yl]-1-[(4R,7S,10S,13S,16S,19R)-19-amino-7,10-bis(2-amino-2-oxoethyl)-13-[(2S)-butan-2-yl]-16-(furan-2-ylmethyl)-6,9,12,15,18-pentaoxo-1,2-dithia-5,8,11,14,17-pentazacycloicosane-4-carbonyl]pyrrolidine-2-carboxamide

$$$$
