
     RDKit          3D

 44 47  0  0  0  0  0  0  0  0999 V2000
    4.1881    0.8680    2.1486 O   0  0  0  0  0  0  0  0  0  0  0  0
    4.5683   -0.1775    1.3202 C   0  0  0  0  0  0  0  0  0  0  0  0
    3.9452   -0.1902   -0.0203 C   0  0  0  0  0  0  0  0  0  0  0  0
    2.5276   -0.2826   -0.0933 N   0  0  0  0  0  0  0  0  0  0  0  0
    1.6094    0.6621    0.4400 C   0  0  0  0  0  0  0  0  0  0  0  0
    1.9934    1.6934    1.0384 O   0  0  0  0  0  0  0  0  0  0  0  0
    0.1748    0.4627    0.3083 C   0  0  0  0  0  0  0  0  0  0  0  0
   -0.4437   -0.5866   -0.3031 N   0  0  0  0  0  0  0  0  0  0  0  0
   -1.7485   -0.4705   -0.2515 N   0  0  0  0  0  0  0  0  0  0  0  0
   -2.0425    0.6652    0.3990 C   0  0  0  0  0  0  0  0  0  0  0  0
   -0.8525    1.2646    0.7581 C   0  0  0  0  0  0  0  0  0  0  0  0
   -1.1029    2.5348    1.4865 C   0  0  0  0  0  0  0  0  0  0  0  0
   -2.6000    2.6044    1.5758 C   0  0  2  0  0  0  0  0  0  0  0  0
   -3.1876    1.4753    0.8521 C   0  0  1  0  0  0  0  0  0  0  0  0
   -3.2758    2.9173    0.2575 C   0  0  0  0  0  0  0  0  0  0  0  0
   -2.6888   -1.3994   -0.7975 C   0  0  0  0  0  0  0  0  0  0  0  0
   -3.7341   -1.7895    0.0291 C   0  0  0  0  0  0  0  0  0  0  0  0
   -4.6974   -2.6842   -0.4030 C   0  0  0  0  0  0  0  0  0  0  0  0
   -4.5842   -3.1778   -1.6877 C   0  0  0  0  0  0  0  0  0  0  0  0
   -3.5408   -2.7908   -2.5182 C   0  0  0  0  0  0  0  0  0  0  0  0
   -2.5693   -1.8887   -2.0828 C   0  0  0  0  0  0  0  0  0  0  0  0
   -3.4838   -3.3102   -3.7694 F   0  0  0  0  0  0  0  0  0  0  0  0
    4.4623    1.0654   -0.7474 C   0  0  0  0  0  0  0  0  0  0  0  0
    4.5439   -1.3641   -0.7864 C   0  0  0  0  0  0  0  0  0  0  0  0
    4.1455    0.6126    3.1068 H   0  0  0  0  0  0  0  0  0  0  0  0
    4.5510   -1.1613    1.8417 H   0  0  0  0  0  0  0  0  0  0  0  0
    5.6708   -0.0057    1.1430 H   0  0  0  0  0  0  0  0  0  0  0  0
    2.0699   -1.1150   -0.5804 H   0  0  0  0  0  0  0  0  0  0  0  0
   -0.6708    2.5580    2.5046 H   0  0  0  0  0  0  0  0  0  0  0  0
   -0.6670    3.3819    0.9164 H   0  0  0  0  0  0  0  0  0  0  0  0
   -3.0649    2.9791    2.5112 H   0  0  0  0  0  0  0  0  0  0  0  0
   -4.1359    1.0061    1.1123 H   0  0  0  0  0  0  0  0  0  0  0  0
   -4.2505    3.4034    0.2715 H   0  0  0  0  0  0  0  0  0  0  0  0
   -2.6739    3.0726   -0.6437 H   0  0  0  0  0  0  0  0  0  0  0  0
   -3.8149   -1.3946    1.0412 H   0  0  0  0  0  0  0  0  0  0  0  0
   -5.5251   -3.0092    0.2155 H   0  0  0  0  0  0  0  0  0  0  0  0
   -5.3218   -3.8745   -2.0445 H   0  0  0  0  0  0  0  0  0  0  0  0
   -1.7495   -1.5773   -2.7189 H   0  0  0  0  0  0  0  0  0  0  0  0
    4.3862    1.9543   -0.0882 H   0  0  0  0  0  0  0  0  0  0  0  0
    5.5402    0.8590   -0.9430 H   0  0  0  0  0  0  0  0  0  0  0  0
    3.9794    1.2086   -1.7229 H   0  0  0  0  0  0  0  0  0  0  0  0
    3.9266   -1.6258   -1.6843 H   0  0  0  0  0  0  0  0  0  0  0  0
    4.6060   -2.2859   -0.1766 H   0  0  0  0  0  0  0  0  0  0  0  0
    5.5378   -1.0874   -1.2146 H   0  0  0  0  0  0  0  0  0  0  0  0
  1  2  1  0
  2  3  1  0
  3  4  1  0
  4  5  1  0
  5  6  2  0
  5  7  1  0
  7  8  2  0
  8  9  1  0
  9 10  1  0
 10 11  2  0
 11 12  1  0
 12 13  1  0
 13 14  1  0
 14 15  1  0
  9 16  1  0
 16 17  2  0
 17 18  1  0
 18 19  2  0
 19 20  1  0
 20 21  2  0
 20 22  1  0
  3 23  1  0
  3 24  1  0
 11  7  1  0
 15 13  1  0
 21 16  1  0
 14 10  1  0
  1 25  1  0
  2 26  1  0
  2 27  1  0
  4 28  1  0
 12 29  1  0
 12 30  1  0
 13 31  1  1
 14 32  1  1
 15 33  1  0
 15 34  1  0
 17 35  1  0
 18 36  1  0
 19 37  1  0
 21 38  1  0
 23 39  1  0
 23 40  1  0
 23 41  1  0
 24 42  1  0
 24 43  1  0
 24 44  1  0
M  END
>  <Ligand ID>  (1) 
LIG0001493

>  <Ligand>  (1) 
CHEMBL3354969

>  <SMILES>  (1) 
OCC(NC(=O)c1nn(c2c1C[C@@H]1[C@H]2C1)c1cccc(c1)F)(C)C

>  <CID>  (1) 
118720576.0

>  <ChEMBL ID>  (1) 
nan

>  <InChiKey>  (1) 
JEGXGCQYSXFNSN-ZWNOBZJWSA-N

>  <InChi>  (1) 
InChI=1S/C18H20FN3O2/c1-18(2,9-23)20-17(24)15-14-7-10-6-13(10)16(14)22(21-15)12-5-3-4-11(19)8-12/h3-5,8,10,13,23H,6-7,9H2,1-2H3,(H,20,24)/t10-,13-/m1/s1

>  <IUPAC Name>  (1) 
(2R,4R)-9-(3-fluorophenyl)-N-(1-hydroxy-2-methylpropan-2-yl)-8,9-diazatricyclo[4.3.0.02,4]nona-1(6),7-diene-7-carboxamide

$$$$
