
     RDKit          3D

 46 50  0  0  0  0  0  0  0  0999 V2000
    7.9162   -1.5913    0.4841 F   0  0  0  0  0  0  0  0  0  0  0  0
    6.8229   -0.8351    0.5907 C   0  0  0  0  0  0  0  0  0  0  0  0
    6.9519    0.4108    1.2110 C   0  0  0  0  0  0  0  0  0  0  0  0
    5.8820    1.2637    1.3694 C   0  0  0  0  0  0  0  0  0  0  0  0
    4.6480    0.8584    0.8936 C   0  0  0  0  0  0  0  0  0  0  0  0
    4.4628   -0.3546    0.2761 C   0  0  0  0  0  0  0  0  0  0  0  0
    5.5742   -1.1667    0.1466 C   0  0  0  0  0  0  0  0  0  0  0  0
    3.2673   -0.8194   -0.2190 O   0  0  0  0  0  0  0  0  0  0  0  0
    2.0472   -0.1607   -0.1877 C   0  0  0  0  0  0  0  0  0  0  0  0
    1.2264   -0.2102   -1.4480 C   0  0  0  0  0  0  0  0  0  0  0  0
    0.0306   -0.3471   -0.5941 N   0  0  0  0  0  0  0  0  0  0  0  0
    0.8836   -0.9739    0.3701 C   0  0  0  0  0  0  0  0  0  0  0  0
   -1.2995    0.0705   -0.8567 C   0  0  0  0  0  0  0  0  0  0  0  0
   -2.3753   -0.2155   -0.0351 C   0  0  0  0  0  0  0  0  0  0  0  0
   -1.9746   -1.0509    1.1252 C   0  0  0  0  0  0  0  0  0  0  0  0
   -3.2536   -1.5823    1.7578 C   0  0  0  0  0  0  0  0  0  0  0  0
   -3.9020   -0.6276    2.5922 N   0  0  0  0  0  0  0  0  0  0  0  0
   -4.7115    0.3266    1.9138 C   0  0  0  0  0  0  0  0  0  0  0  0
   -4.9282    0.0240    0.4525 C   0  0  0  0  0  0  0  0  0  0  0  0
   -3.6668    0.2446   -0.3320 C   0  0  0  0  0  0  0  0  0  0  0  0
   -3.8807    0.9769   -1.4308 N   0  0  0  0  0  0  0  0  0  0  0  0
   -2.8354    1.2533   -2.2285 C   0  0  0  0  0  0  0  0  0  0  0  0
   -1.5951    0.8197   -1.9557 N   0  0  0  0  0  0  0  0  0  0  0  0
   -0.8344    1.2607   -2.9203 N   0  0  0  0  0  0  0  0  0  0  0  0
   -1.5210    1.9713   -3.8246 C   0  0  0  0  0  0  0  0  0  0  0  0
   -2.8328    1.9846   -3.4002 C   0  0  0  0  0  0  0  0  0  0  0  0
    7.9123    0.7523    1.5936 H   0  0  0  0  0  0  0  0  0  0  0  0
    6.0078    2.2159    1.8500 H   0  0  0  0  0  0  0  0  0  0  0  0
    3.8317    1.5385    1.0288 H   0  0  0  0  0  0  0  0  0  0  0  0
    5.4678   -2.1395   -0.3393 H   0  0  0  0  0  0  0  0  0  0  0  0
    2.1117    0.8281    0.2903 H   0  0  0  0  0  0  0  0  0  0  0  0
    1.3635   -1.1532   -2.0007 H   0  0  0  0  0  0  0  0  0  0  0  0
    1.2865    0.7123   -2.0243 H   0  0  0  0  0  0  0  0  0  0  0  0
    0.7070   -0.8123    1.4374 H   0  0  0  0  0  0  0  0  0  0  0  0
    1.1150   -2.0595    0.1615 H   0  0  0  0  0  0  0  0  0  0  0  0
   -1.3026   -1.8699    0.8448 H   0  0  0  0  0  0  0  0  0  0  0  0
   -1.5336   -0.3766    1.8569 H   0  0  0  0  0  0  0  0  0  0  0  0
   -2.9012   -2.4154    2.4323 H   0  0  0  0  0  0  0  0  0  0  0  0
   -3.8956   -2.0885    1.0132 H   0  0  0  0  0  0  0  0  0  0  0  0
   -4.3953   -1.1066    3.3651 H   0  0  0  0  0  0  0  0  0  0  0  0
   -5.7218    0.3261    2.3939 H   0  0  0  0  0  0  0  0  0  0  0  0
   -4.3505    1.3670    1.9923 H   0  0  0  0  0  0  0  0  0  0  0  0
   -5.3908   -0.9394    0.2498 H   0  0  0  0  0  0  0  0  0  0  0  0
   -5.6507    0.7963    0.0846 H   0  0  0  0  0  0  0  0  0  0  0  0
   -1.1033    2.4289   -4.6985 H   0  0  0  0  0  0  0  0  0  0  0  0
   -3.6600    2.4659   -3.8898 H   0  0  0  0  0  0  0  0  0  0  0  0
  1  2  1  0
  2  3  2  0
  3  4  1  0
  4  5  2  0
  5  6  1  0
  6  7  2  0
  6  8  1  0
  8  9  1  0
  9 10  1  0
 10 11  1  0
 11 12  1  0
 11 13  1  0
 13 14  2  0
 14 15  1  0
 15 16  1  0
 16 17  1  0
 17 18  1  0
 18 19  1  0
 19 20  1  0
 20 21  2  0
 21 22  1  0
 22 23  1  0
 23 24  1  0
 24 25  2  0
 25 26  1  0
  7  2  1  0
 12  9  1  0
 23 13  1  0
 20 14  1  0
 26 22  2  0
  3 27  1  0
  4 28  1  0
  5 29  1  0
  7 30  1  0
  9 31  1  0
 10 32  1  0
 10 33  1  0
 12 34  1  0
 12 35  1  0
 15 36  1  0
 15 37  1  0
 16 38  1  0
 16 39  1  0
 17 40  1  0
 18 41  1  0
 18 42  1  0
 19 43  1  0
 19 44  1  0
 25 45  1  0
 26 46  1  0
M  END
>  <Ligand ID>  (1) 
LIG0003238

>  <Ligand>  (1) 
CHEMBL1643677

>  <SMILES>  (1) 
Fc1cccc(c1)OC1CN(C1)c1c2CCNCCc2nc2n1ncc2

>  <CID>  (1) 
53321948.0

>  <ChEMBL ID>  (1) 
nan

>  <InChiKey>  (1) 
UACUIHOXTMUHHQ-UHFFFAOYSA-N

>  <InChi>  (1) 
InChI=1S/C19H20FN5O/c20-13-2-1-3-14(10-13)26-15-11-24(12-15)19-16-4-7-21-8-5-17(16)23-18-6-9-22-25(18)19/h1-3,6,9-10,15,21H,4-5,7-8,11-12H2

>  <IUPAC Name>  (1) 
8-[3-(3-fluorophenoxy)azetidin-1-yl]-2,6,7,12-tetrazatricyclo[7.5.0.03,7]tetradeca-1,3,5,8-tetraene

$$$$
