
     RDKit          3D

 23 23  0  0  0  0  0  0  0  0999 V2000
   -2.8514   -1.0679   -0.6924 C   0  0  0  0  0  0  0  0  0  0  0  0
   -2.2208   -0.4445    0.5330 C   0  0  0  0  0  0  0  0  0  0  0  0
   -0.9506    0.2383    0.1541 C   0  0  0  0  0  0  0  0  0  0  0  0
   -1.0523    1.5677   -0.2131 C   0  0  0  0  0  0  0  0  0  0  0  0
    0.1433    2.1946   -0.5652 C   0  0  0  0  0  0  0  0  0  0  0  0
    1.3364    1.5314   -0.5464 C   0  0  0  0  0  0  0  0  0  0  0  0
    1.4153    0.2042   -0.1766 C   0  0  0  0  0  0  0  0  0  0  0  0
    0.2499   -0.4435    0.1771 C   0  0  0  0  0  0  0  0  0  0  0  0
    2.6600   -0.4107   -0.1792 O   0  0  0  0  0  0  0  0  0  0  0  0
    2.7962   -1.7501    0.1859 C   0  0  0  0  0  0  0  0  0  0  0  0
    2.5128    2.1935   -0.9058 O   0  0  0  0  0  0  0  0  0  0  0  0
   -3.4951   -1.9189   -0.4461 H   0  0  0  0  0  0  0  0  0  0  0  0
   -2.0866   -1.3642   -1.4401 H   0  0  0  0  0  0  0  0  0  0  0  0
   -3.4198   -0.2454   -1.2089 H   0  0  0  0  0  0  0  0  0  0  0  0
   -2.8913    0.2890    1.0252 H   0  0  0  0  0  0  0  0  0  0  0  0
   -1.9714   -1.1820    1.3142 H   0  0  0  0  0  0  0  0  0  0  0  0
   -1.9878    2.0959   -0.2301 H   0  0  0  0  0  0  0  0  0  0  0  0
    0.1258    3.2483   -0.8652 H   0  0  0  0  0  0  0  0  0  0  0  0
    0.2754   -1.4649    0.4668 H   0  0  0  0  0  0  0  0  0  0  0  0
    2.1574   -1.9877    1.0549 H   0  0  0  0  0  0  0  0  0  0  0  0
    2.6053   -2.4601   -0.6500 H   0  0  0  0  0  0  0  0  0  0  0  0
    3.8497   -1.8589    0.5746 H   0  0  0  0  0  0  0  0  0  0  0  0
    2.7996    3.0358   -0.4319 H   0  0  0  0  0  0  0  0  0  0  0  0
  1  2  1  0
  2  3  1  0
  3  4  2  0
  4  5  1  0
  5  6  2  0
  6  7  1  0
  7  8  2  0
  7  9  1  0
  9 10  1  0
  6 11  1  0
  8  3  1  0
  1 12  1  0
  1 13  1  0
  1 14  1  0
  2 15  1  0
  2 16  1  0
  4 17  1  0
  5 18  1  0
  8 19  1  0
 10 20  1  0
 10 21  1  0
 10 22  1  0
 11 23  1  0
M  END
>  <Ligand ID>  (1) 
LIG0000462

>  <Ligand>  (1) 
4-Ethylguaiacol

>  <SMILES>  (1) 
CCc1ccc(c(c1)OC)O

>  <CID>  (1) 
62465.0

>  <ChEMBL ID>  (1) 
nan

>  <InChiKey>  (1) 
CHWNEIVBYREQRF-UHFFFAOYSA-N

>  <InChi>  (1) 
InChI=1S/C9H12O2/c1-3-7-4-5-8(10)9(6-7)11-2/h4-6,10H,3H2,1-2H3

>  <IUPAC Name>  (1) 
4-ethyl-2-methoxyphenol

$$$$
