
     RDKit          3D

 56 60  0  0  0  0  0  0  0  0999 V2000
    7.6966   -2.4688    0.7799 C   0  0  0  0  0  0  0  0  0  0  0  0
    7.0854   -2.0237   -0.5072 C   0  0  0  0  0  0  0  0  0  0  0  0
    6.1150   -0.9562   -0.3665 N   0  0  0  0  0  0  0  0  0  0  0  0
    4.8076   -1.1706   -0.1699 C   0  0  0  0  0  0  0  0  0  0  0  0
    4.0356   -2.3074   -0.0495 C   0  0  0  0  0  0  0  0  0  0  0  0
    2.6932   -2.2812    0.1513 C   0  0  0  0  0  0  0  0  0  0  0  0
    2.0108   -1.0836    0.2484 C   0  0  0  0  0  0  0  0  0  0  0  0
    2.7624    0.0591    0.1311 C   0  0  0  0  0  0  0  0  0  0  0  0
    4.1420    0.0372   -0.0753 C   0  0  0  0  0  0  0  0  0  0  0  0
    5.1078    1.0108   -0.2240 C   0  0  0  0  0  0  0  0  0  0  0  0
    6.3233    0.3768   -0.4033 C   0  0  0  0  0  0  0  0  0  0  0  0
    7.4718    1.1211   -0.5784 C   0  0  0  0  0  0  0  0  0  0  0  0
    7.3978    2.4975   -0.5731 C   0  0  0  0  0  0  0  0  0  0  0  0
    6.1872    3.1359   -0.3946 C   0  0  0  0  0  0  0  0  0  0  0  0
    5.0293    2.3789   -0.2181 C   0  0  0  0  0  0  0  0  0  0  0  0
    0.6181   -1.1311    0.4570 N   0  0  0  0  0  0  0  0  0  0  0  0
   -0.2399   -0.0162    0.5809 C   0  0  0  0  0  0  0  0  0  0  0  0
    0.1312    1.1750    0.5206 O   0  0  0  0  0  0  0  0  0  0  0  0
   -1.7158   -0.2299    0.8026 C   0  0  0  0  0  0  0  0  0  0  0  0
   -2.4218    1.1133    0.9028 C   0  0  0  0  0  0  0  0  0  0  0  0
   -3.8735    0.9028    1.1210 C   0  0  0  0  0  0  0  0  0  0  0  0
   -4.4651    0.7982    2.2987 O   0  0  0  0  0  0  0  0  0  0  0  0
   -5.7476    0.6180    2.1538 N   0  0  0  0  0  0  0  0  0  0  0  0
   -6.0292    0.6003    0.8551 C   0  0  0  0  0  0  0  0  0  0  0  0
   -4.8595    0.7780    0.2140 N   0  0  0  0  0  0  0  0  0  0  0  0
   -7.3703    0.4187    0.3106 C   0  0  0  0  0  0  0  0  0  0  0  0
   -8.4064    0.2554    1.2087 C   0  0  0  0  0  0  0  0  0  0  0  0
   -9.7193    0.0758    0.7735 C   0  0  0  0  0  0  0  0  0  0  0  0
   -9.9886    0.0612   -0.5899 C   0  0  0  0  0  0  0  0  0  0  0  0
   -8.9403    0.2264   -1.4930 C   0  0  0  0  0  0  0  0  0  0  0  0
   -7.6431    0.4034   -1.0407 C   0  0  0  0  0  0  0  0  0  0  0  0
   -6.5148    0.5808   -1.9885 C   0  0  0  0  0  0  0  0  0  0  0  0
  -11.2666   -0.1134   -1.0182 F   0  0  0  0  0  0  0  0  0  0  0  0
    7.1520   -2.0724    1.6680 H   0  0  0  0  0  0  0  0  0  0  0  0
    7.8000   -3.5881    0.8038 H   0  0  0  0  0  0  0  0  0  0  0  0
    8.7501   -2.1096    0.8936 H   0  0  0  0  0  0  0  0  0  0  0  0
    7.9069   -1.5851   -1.1389 H   0  0  0  0  0  0  0  0  0  0  0  0
    6.7002   -2.8672   -1.1284 H   0  0  0  0  0  0  0  0  0  0  0  0
    4.5307   -3.2527   -0.1196 H   0  0  0  0  0  0  0  0  0  0  0  0
    2.1625   -3.2355    0.2348 H   0  0  0  0  0  0  0  0  0  0  0  0
    2.3197    1.0314    0.1932 H   0  0  0  0  0  0  0  0  0  0  0  0
    8.4223    0.5957   -0.7184 H   0  0  0  0  0  0  0  0  0  0  0  0
    8.2884    3.1034   -0.7090 H   0  0  0  0  0  0  0  0  0  0  0  0
    6.1289    4.2334   -0.3905 H   0  0  0  0  0  0  0  0  0  0  0  0
    4.1093    2.8968   -0.0826 H   0  0  0  0  0  0  0  0  0  0  0  0
    0.1513   -2.0747    0.5306 H   0  0  0  0  0  0  0  0  0  0  0  0
   -2.1197   -0.7542   -0.0719 H   0  0  0  0  0  0  0  0  0  0  0  0
   -1.9169   -0.8071    1.7249 H   0  0  0  0  0  0  0  0  0  0  0  0
   -1.9690    1.7306    1.7080 H   0  0  0  0  0  0  0  0  0  0  0  0
   -2.3216    1.6930   -0.0370 H   0  0  0  0  0  0  0  0  0  0  0  0
   -8.2537    0.2583    2.2889 H   0  0  0  0  0  0  0  0  0  0  0  0
  -10.5144   -0.0503    1.5110 H   0  0  0  0  0  0  0  0  0  0  0  0
   -9.1651    0.2129   -2.5571 H   0  0  0  0  0  0  0  0  0  0  0  0
   -6.8410    0.6229   -3.0340 H   0  0  0  0  0  0  0  0  0  0  0  0
   -5.9055    1.4741   -1.8070 H   0  0  0  0  0  0  0  0  0  0  0  0
   -5.8287   -0.2979   -1.9126 H   0  0  0  0  0  0  0  0  0  0  0  0
  1  2  1  0
  2  3  1  0
  3  4  1  0
  4  5  2  0
  5  6  1  0
  6  7  2  0
  7  8  1  0
  8  9  2  0
  9 10  1  0
 10 11  2  0
 11 12  1  0
 12 13  2  0
 13 14  1  0
 14 15  2  0
  7 16  1  0
 16 17  1  0
 17 18  2  0
 17 19  1  0
 19 20  1  0
 20 21  1  0
 21 22  1  0
 22 23  1  0
 23 24  2  0
 24 25  1  0
 24 26  1  0
 26 27  2  0
 27 28  1  0
 28 29  2  0
 29 30  1  0
 30 31  2  0
 31 32  1  0
 29 33  1  0
 11  3  1  0
 25 21  2  0
 31 26  1  0
  9  4  1  0
 15 10  1  0
  1 34  1  0
  1 35  1  0
  1 36  1  0
  2 37  1  0
  2 38  1  0
  5 39  1  0
  6 40  1  0
  8 41  1  0
 12 42  1  0
 13 43  1  0
 14 44  1  0
 15 45  1  0
 16 46  1  0
 19 47  1  0
 19 48  1  0
 20 49  1  0
 20 50  1  0
 27 51  1  0
 28 52  1  0
 30 53  1  0
 32 54  1  0
 32 55  1  0
 32 56  1  0
M  END
>  <Ligand ID>  (1) 
LIG0004393

>  <Ligand>  (1) 
CHEMBL501472

>  <SMILES>  (1) 
CCn1c2ccc(cc2c2c1cccc2)NC(=O)CCc1onc(n1)c1ccc(cc1C)F

>  <CID>  (1) 
25034138.0

>  <ChEMBL ID>  (1) 
nan

>  <InChiKey>  (1) 
SSHGXSSBOQFBGD-UHFFFAOYSA-N

>  <InChi>  (1) 
InChI=1S/C26H23FN4O2/c1-3-31-22-7-5-4-6-20(22)21-15-18(9-11-23(21)31)28-24(32)12-13-25-29-26(30-33-25)19-10-8-17(27)14-16(19)2/h4-11,14-15H,3,12-13H2,1-2H3,(H,28,32)

>  <IUPAC Name>  (1) 
N-(9-ethylcarbazol-3-yl)-3-[3-(4-fluoro-2-methylphenyl)-1,2,4-oxadiazol-5-yl]propanamide

$$$$
