
     RDKit          3D

 32 34  0  0  0  0  0  0  0  0999 V2000
    6.4464    0.9748   -1.1289 O   0  0  0  0  0  0  0  0  0  0  0  0
    5.0851    0.6676   -1.1078 C   0  0  0  0  0  0  0  0  0  0  0  0
    4.3606    0.6000   -2.2681 C   0  0  0  0  0  0  0  0  0  0  0  0
    2.9981    0.2960   -2.2900 C   0  0  0  0  0  0  0  0  0  0  0  0
    2.4108    0.0644   -1.0713 C   0  0  0  0  0  0  0  0  0  0  0  0
    3.0932    0.1194    0.1261 C   0  0  0  0  0  0  0  0  0  0  0  0
    4.4518    0.4253    0.1142 C   0  0  0  0  0  0  0  0  0  0  0  0
    2.5332   -0.0998    1.2674 O   0  0  0  0  0  0  0  0  0  0  0  0
    1.2538   -0.3924    1.3335 C   0  0  0  0  0  0  0  0  0  0  0  0
    0.7865   -0.5908    2.4750 O   0  0  0  0  0  0  0  0  0  0  0  0
    0.4355   -0.4856    0.2297 C   0  0  0  0  0  0  0  0  0  0  0  0
    1.0631   -0.2445   -0.9937 C   0  0  0  0  0  0  0  0  0  0  0  0
   -0.9609   -0.7989    0.2281 C   0  0  0  0  0  0  0  0  0  0  0  0
   -1.5538   -0.8389   -0.9076 O   0  0  0  0  0  0  0  0  0  0  0  0
   -1.7820   -1.0744    1.3407 N   0  0  0  0  0  0  0  0  0  0  0  0
   -3.1973   -1.3837    1.2552 C   0  0  0  0  0  0  0  0  0  0  0  0
   -4.0148   -0.3189    0.6653 C   0  0  0  0  0  0  0  0  0  0  0  0
   -4.4228   -0.0819   -0.6260 C   0  0  0  0  0  0  0  0  0  0  0  0
   -5.1933    1.0818   -0.6458 C   0  0  0  0  0  0  0  0  0  0  0  0
   -5.2097    1.4968    0.6735 C   0  0  0  0  0  0  0  0  0  0  0  0
   -4.5265    0.6730    1.3944 O   0  0  0  0  0  0  0  0  0  0  0  0
    7.0122    0.4863   -0.4361 H   0  0  0  0  0  0  0  0  0  0  0  0
    4.8066    0.7804   -3.2480 H   0  0  0  0  0  0  0  0  0  0  0  0
    2.4336    0.2446   -3.2093 H   0  0  0  0  0  0  0  0  0  0  0  0
    5.0026    0.4735    1.0351 H   0  0  0  0  0  0  0  0  0  0  0  0
    0.5294   -0.2874   -1.9323 H   0  0  0  0  0  0  0  0  0  0  0  0
   -1.3646   -1.0585    2.2878 H   0  0  0  0  0  0  0  0  0  0  0  0
   -3.5519   -1.6980    2.2544 H   0  0  0  0  0  0  0  0  0  0  0  0
   -3.3219   -2.2866    0.6137 H   0  0  0  0  0  0  0  0  0  0  0  0
   -4.2010   -0.6786   -1.4785 H   0  0  0  0  0  0  0  0  0  0  0  0
   -5.6657    1.5461   -1.5011 H   0  0  0  0  0  0  0  0  0  0  0  0
   -5.7363    2.3887    0.9873 H   0  0  0  0  0  0  0  0  0  0  0  0
  1  2  1  0
  2  3  2  0
  3  4  1  0
  4  5  2  0
  5  6  1  0
  6  7  2  0
  6  8  1  0
  8  9  1  0
  9 10  2  0
  9 11  1  0
 11 12  2  0
 11 13  1  0
 13 14  2  0
 13 15  1  0
 15 16  1  0
 16 17  1  0
 17 18  2  0
 18 19  1  0
 19 20  2  0
 20 21  1  0
  7  2  1  0
 21 17  1  0
 12  5  1  0
  1 22  1  0
  3 23  1  0
  4 24  1  0
  7 25  1  0
 12 26  1  0
 15 27  1  0
 16 28  1  0
 16 29  1  0
 18 30  1  0
 19 31  1  0
 20 32  1  0
M  END
>  <Ligand ID>  (1) 
LIG0001286

>  <Ligand>  (1) 
MLS000049147

>  <SMILES>  (1) 
Oc1ccc2c(c1)oc(=O)c(c2)C(=O)NCc1ccco1

>  <CID>  (1) 
5398663.0

>  <ChEMBL ID>  (1) 
nan

>  <InChiKey>  (1) 
VSRQWJVOVDOTOW-UHFFFAOYSA-N

>  <InChi>  (1) 
InChI=1S/C15H11NO5/c17-10-4-3-9-6-12(15(19)21-13(9)7-10)14(18)16-8-11-2-1-5-20-11/h1-7,17H,8H2,(H,16,18)

>  <IUPAC Name>  (1) 
N-(furan-2-ylmethyl)-7-hydroxy-2-oxochromene-3-carboxamide

$$$$
