
     RDKit          3D

 55 57  0  0  0  0  0  0  0  0999 V2000
   -1.5620    3.0898    0.9904 Cl  0  0  0  0  0  0  0  0  0  0  0  0
   -2.4730    1.7469    0.3620 C   0  0  0  0  0  0  0  0  0  0  0  0
   -3.4516    2.0243   -0.5935 C   0  0  0  0  0  0  0  0  0  0  0  0
   -4.1810    0.9701   -1.0991 C   0  0  0  0  0  0  0  0  0  0  0  0
   -3.9385   -0.3351   -0.6597 C   0  0  0  0  0  0  0  0  0  0  0  0
   -2.9745   -0.6174    0.2829 C   0  0  0  0  0  0  0  0  0  0  0  0
   -2.2426    0.4375    0.7906 C   0  0  0  0  0  0  0  0  0  0  0  0
   -1.1949    0.2735    1.7906 C   0  0  0  0  0  0  0  0  0  0  0  0
   -1.5085    0.3389    3.0194 O   0  0  0  0  0  0  0  0  0  0  0  0
    0.1494    0.0455    1.4178 N   0  0  0  0  0  0  0  0  0  0  0  0
    0.5849   -0.0430    0.0240 C   0  0  0  0  0  0  0  0  0  0  0  0
    1.6186    1.0478   -0.1432 C   0  0  0  0  0  0  0  0  0  0  0  0
    2.7138    0.9391    0.8005 N   0  0  0  0  0  0  0  0  0  0  0  0
    2.3486    0.8102    2.2058 C   0  0  0  0  0  0  0  0  0  0  0  0
    1.1766   -0.1129    2.4253 C   0  0  0  0  0  0  0  0  0  0  0  0
    4.0820    0.9536    0.4200 C   0  0  0  0  0  0  0  0  0  0  0  0
    4.8513    1.9925    0.9251 C   0  0  0  0  0  0  0  0  0  0  0  0
    6.1942    2.1313    0.6341 C   0  0  0  0  0  0  0  0  0  0  0  0
    6.7664    1.1926   -0.1886 C   0  0  0  0  0  0  0  0  0  0  0  0
    6.0038    0.1635   -0.6886 C   0  0  0  0  0  0  0  0  0  0  0  0
    4.6563    0.0119   -0.4051 C   0  0  0  0  0  0  0  0  0  0  0  0
    3.8527   -1.0937   -0.9419 C   0  0  0  0  0  0  0  0  0  0  0  0
    6.6544   -0.8448   -1.5832 C   0  0  0  0  0  0  0  0  0  0  0  0
   -4.9208   -1.5971   -1.3678 S   0  0  0  0  0  0  0  0  0  0  0  0
   -4.1790   -2.9076   -1.4005 O   0  0  0  0  0  0  0  0  0  0  0  0
   -5.2907   -1.2768   -2.7793 O   0  0  0  0  0  0  0  0  0  0  0  0
   -6.3685   -1.8490   -0.4537 N   0  0  0  0  0  0  0  0  0  0  0  0
   -7.0976   -0.5741   -0.5113 C   0  0  0  0  0  0  0  0  0  0  0  0
   -7.1862   -2.7713   -1.2477 C   0  0  0  0  0  0  0  0  0  0  0  0
   -3.6283    3.0307   -0.9222 H   0  0  0  0  0  0  0  0  0  0  0  0
   -4.9348    1.1901   -1.8358 H   0  0  0  0  0  0  0  0  0  0  0  0
   -2.7875   -1.6112    0.6193 H   0  0  0  0  0  0  0  0  0  0  0  0
    1.0773   -1.0068   -0.1041 H   0  0  0  0  0  0  0  0  0  0  0  0
   -0.2220    0.1588   -0.6818 H   0  0  0  0  0  0  0  0  0  0  0  0
    1.9767    1.1685   -1.1790 H   0  0  0  0  0  0  0  0  0  0  0  0
    1.1367    2.0410    0.1015 H   0  0  0  0  0  0  0  0  0  0  0  0
    2.1164    1.8182    2.5967 H   0  0  0  0  0  0  0  0  0  0  0  0
    3.2013    0.3809    2.7676 H   0  0  0  0  0  0  0  0  0  0  0  0
    0.7483    0.1270    3.4146 H   0  0  0  0  0  0  0  0  0  0  0  0
    1.5397   -1.1455    2.3402 H   0  0  0  0  0  0  0  0  0  0  0  0
    4.4224    2.7589    1.5852 H   0  0  0  0  0  0  0  0  0  0  0  0
    6.7828    2.9577    1.0424 H   0  0  0  0  0  0  0  0  0  0  0  0
    7.8112    1.2911   -0.4219 H   0  0  0  0  0  0  0  0  0  0  0  0
    3.1595   -0.8311   -1.7482 H   0  0  0  0  0  0  0  0  0  0  0  0
    3.3888   -1.7049   -0.1188 H   0  0  0  0  0  0  0  0  0  0  0  0
    4.5782   -1.8223   -1.4107 H   0  0  0  0  0  0  0  0  0  0  0  0
    6.2440   -0.8070   -2.6129 H   0  0  0  0  0  0  0  0  0  0  0  0
    6.6012   -1.8719   -1.1602 H   0  0  0  0  0  0  0  0  0  0  0  0
    7.7327   -0.6264   -1.6876 H   0  0  0  0  0  0  0  0  0  0  0  0
   -7.0464   -0.1666   -1.5437 H   0  0  0  0  0  0  0  0  0  0  0  0
   -8.1485   -0.7389   -0.2065 H   0  0  0  0  0  0  0  0  0  0  0  0
   -6.5794    0.1537    0.1725 H   0  0  0  0  0  0  0  0  0  0  0  0
   -6.9889   -3.8204   -0.9978 H   0  0  0  0  0  0  0  0  0  0  0  0
   -7.0026   -2.5616   -2.3208 H   0  0  0  0  0  0  0  0  0  0  0  0
   -8.2627   -2.5079   -1.0817 H   0  0  0  0  0  0  0  0  0  0  0  0
  1  2  1  0
  2  3  2  0
  3  4  1  0
  4  5  2  0
  5  6  1  0
  6  7  2  0
  7  8  1  0
  8  9  2  0
  8 10  1  0
 10 11  1  0
 11 12  1  0
 12 13  1  0
 13 14  1  0
 14 15  1  0
 13 16  1  0
 16 17  2  0
 17 18  1  0
 18 19  2  0
 19 20  1  0
 20 21  2  0
 21 22  1  0
 20 23  1  0
  5 24  1  0
 24 25  2  0
 24 26  2  0
 24 27  1  0
 27 28  1  0
 27 29  1  0
  7  2  1  0
 15 10  1  0
 21 16  1  0
  3 30  1  0
  4 31  1  0
  6 32  1  0
 11 33  1  0
 11 34  1  0
 12 35  1  0
 12 36  1  0
 14 37  1  0
 14 38  1  0
 15 39  1  0
 15 40  1  0
 17 41  1  0
 18 42  1  0
 19 43  1  0
 22 44  1  0
 22 45  1  0
 22 46  1  0
 23 47  1  0
 23 48  1  0
 23 49  1  0
 28 50  1  0
 28 51  1  0
 28 52  1  0
 29 53  1  0
 29 54  1  0
 29 55  1  0
M  END
>  <Ligand ID>  (1) 
LIG0001669

>  <Ligand>  (1) 
MLS-0435534.0001

>  <SMILES>  (1) 
Clc1ccc(cc1C(=O)N1CCN(CC1)c1cccc(c1C)C)S(=O)(=O)N(C)C

>  <CID>  (1) 
16273006.0

>  <ChEMBL ID>  (1) 
nan

>  <InChiKey>  (1) 
KFPUJRPTEYGPLI-UHFFFAOYSA-N

>  <InChi>  (1) 
InChI=1S/C21H26ClN3O3S/c1-15-6-5-7-20(16(15)2)24-10-12-25(13-11-24)21(26)18-14-17(8-9-19(18)22)29(27,28)23(3)4/h5-9,14H,10-13H2,1-4H3

>  <IUPAC Name>  (1) 
4-chloro-3-[4-(2,3-dimethylphenyl)piperazine-1-carbonyl]-N,N-dimethylbenzenesulfonamide

$$$$
