
     RDKit          3D

 63 62  0  0  0  0  0  0  0  0999 V2000
   -8.3863   -2.1761    2.2631 C   0  0  0  0  0  0  0  0  0  0  0  0
   -6.9473   -2.2258    2.6746 C   0  0  0  0  0  0  0  0  0  0  0  0
   -6.0320   -1.5468    1.6758 C   0  0  0  0  0  0  0  0  0  0  0  0
   -6.3607   -0.1036    1.4858 C   0  0  0  0  0  0  0  0  0  0  0  0
   -5.4216    0.5615    0.4649 C   0  0  0  0  0  0  0  0  0  0  0  0
   -4.0165    0.4652    0.9428 C   0  0  0  0  0  0  0  0  0  0  0  0
   -2.9993    1.1320   -0.0292 C   0  0  0  0  0  0  0  0  0  0  0  0
   -3.0302    0.4697   -1.3587 C   0  0  0  0  0  0  0  0  0  0  0  0
   -2.2036    1.0461   -2.4190 C   0  0  0  0  0  0  0  0  0  0  0  0
   -0.7475    1.1614   -2.2698 C   0  0  0  0  0  0  0  0  0  0  0  0
   -0.1873    2.0800   -1.2547 C   0  0  0  0  0  0  0  0  0  0  0  0
    1.3341    2.0526   -1.3410 C   0  0  0  0  0  0  0  0  0  0  0  0
    1.9477    0.7154   -1.0727 C   0  0  0  0  0  0  0  0  0  0  0  0
    3.4391    0.8620   -1.1759 C   0  0  0  0  0  0  0  0  0  0  0  0
    4.1602    0.1763   -2.0506 C   0  0  0  0  0  0  0  0  0  0  0  0
    5.6129    0.2563   -2.2195 C   0  0  2  0  0  0  0  0  0  0  0  0
    6.4262    0.3615   -0.9775 C   0  0  2  0  0  0  0  0  0  0  0  0
    6.2059   -0.8030   -0.0314 C   0  0  0  0  0  0  0  0  0  0  0  0
    7.1079   -0.8022    1.0049 O   0  0  0  0  0  0  0  0  0  0  0  0
    6.8560   -2.0571    2.1004 P   0  0  0  0  0  0  0  0  0  0  0  0
    5.5120   -2.6970    1.9386 O   0  0  0  0  0  0  0  0  0  0  0  0
    8.0407   -3.2380    1.8520 O   0  0  0  0  0  0  0  0  0  0  0  0
    7.0260   -1.5146    3.7061 O   0  0  0  0  0  0  0  0  0  0  0  0
    6.2840    1.5802   -0.2705 N   0  0  0  0  0  0  0  0  0  0  0  0
    6.0087    1.3218   -3.0614 O   0  0  0  0  0  0  0  0  0  0  0  0
   -8.8751   -1.3271    2.7673 H   0  0  0  0  0  0  0  0  0  0  0  0
   -8.4957   -2.1357    1.1558 H   0  0  0  0  0  0  0  0  0  0  0  0
   -8.8655   -3.1226    2.6132 H   0  0  0  0  0  0  0  0  0  0  0  0
   -6.8526   -1.7657    3.6773 H   0  0  0  0  0  0  0  0  0  0  0  0
   -6.6075   -3.2676    2.7903 H   0  0  0  0  0  0  0  0  0  0  0  0
   -5.0051   -1.6857    2.0696 H   0  0  0  0  0  0  0  0  0  0  0  0
   -6.1065   -2.0390    0.6854 H   0  0  0  0  0  0  0  0  0  0  0  0
   -7.3737    0.0714    1.1284 H   0  0  0  0  0  0  0  0  0  0  0  0
   -6.2178    0.4802    2.4292 H   0  0  0  0  0  0  0  0  0  0  0  0
   -5.7374    1.6370    0.4425 H   0  0  0  0  0  0  0  0  0  0  0  0
   -5.6370    0.1677   -0.5248 H   0  0  0  0  0  0  0  0  0  0  0  0
   -3.9269    0.9519    1.9328 H   0  0  0  0  0  0  0  0  0  0  0  0
   -3.6559   -0.5775    1.0471 H   0  0  0  0  0  0  0  0  0  0  0  0
   -2.0310    0.8424    0.5054 H   0  0  0  0  0  0  0  0  0  0  0  0
   -3.1478    2.2019   -0.0982 H   0  0  0  0  0  0  0  0  0  0  0  0
   -4.0971    0.3696   -1.7408 H   0  0  0  0  0  0  0  0  0  0  0  0
   -2.6914   -0.6265   -1.2466 H   0  0  0  0  0  0  0  0  0  0  0  0
   -2.4606    0.4522   -3.3782 H   0  0  0  0  0  0  0  0  0  0  0  0
   -2.6253    2.0869   -2.6703 H   0  0  0  0  0  0  0  0  0  0  0  0
   -0.3547    1.4589   -3.3078 H   0  0  0  0  0  0  0  0  0  0  0  0
   -0.2664    0.1219   -2.1751 H   0  0  0  0  0  0  0  0  0  0  0  0
   -0.4838    3.1474   -1.5276 H   0  0  0  0  0  0  0  0  0  0  0  0
   -0.4081    1.9271   -0.2103 H   0  0  0  0  0  0  0  0  0  0  0  0
    1.6018    2.3222   -2.4050 H   0  0  0  0  0  0  0  0  0  0  0  0
    1.7983    2.7829   -0.6617 H   0  0  0  0  0  0  0  0  0  0  0  0
    1.7513    0.4518   -0.0065 H   0  0  0  0  0  0  0  0  0  0  0  0
    1.5962   -0.1137   -1.6910 H   0  0  0  0  0  0  0  0  0  0  0  0
    3.9235    1.5564   -0.5056 H   0  0  0  0  0  0  0  0  0  0  0  0
    3.5786   -0.5079   -2.6951 H   0  0  0  0  0  0  0  0  0  0  0  0
    5.9560   -0.6580   -2.7807 H   0  0  0  0  0  0  0  0  0  0  0  0
    7.5020    0.2534   -1.3066 H   0  0  0  0  0  0  0  0  0  0  0  0
    6.3875   -1.7309   -0.6364 H   0  0  0  0  0  0  0  0  0  0  0  0
    5.1401   -0.8909    0.2811 H   0  0  0  0  0  0  0  0  0  0  0  0
    7.9387   -3.8718    2.6239 H   0  0  0  0  0  0  0  0  0  0  0  0
    7.7014   -2.0135    4.2025 H   0  0  0  0  0  0  0  0  0  0  0  0
    6.1180    2.4298   -0.7919 H   0  0  0  0  0  0  0  0  0  0  0  0
    5.9807    1.5005    0.6904 H   0  0  0  0  0  0  0  0  0  0  0  0
    5.3197    2.0427   -3.0807 H   0  0  0  0  0  0  0  0  0  0  0  0
  1  2  1  0
  2  3  1  0
  3  4  1  0
  4  5  1  0
  5  6  1  0
  6  7  1  0
  7  8  1  0
  8  9  1  0
  9 10  1  0
 10 11  1  0
 11 12  1  0
 12 13  1  0
 13 14  1  0
 14 15  2  0
 15 16  1  0
 16 17  1  0
 17 18  1  0
 18 19  1  0
 19 20  1  0
 20 21  2  0
 20 22  1  0
 20 23  1  0
 17 24  1  0
 16 25  1  0
  1 26  1  0
  1 27  1  0
  1 28  1  0
  2 29  1  0
  2 30  1  0
  3 31  1  0
  3 32  1  0
  4 33  1  0
  4 34  1  0
  5 35  1  0
  5 36  1  0
  6 37  1  0
  6 38  1  0
  7 39  1  0
  7 40  1  0
  8 41  1  0
  8 42  1  0
  9 43  1  0
  9 44  1  0
 10 45  1  0
 10 46  1  0
 11 47  1  0
 11 48  1  0
 12 49  1  0
 12 50  1  0
 13 51  1  0
 13 52  1  0
 14 53  1  0
 15 54  1  0
 16 55  1  6
 17 56  1  6
 18 57  1  0
 18 58  1  0
 22 59  1  0
 23 60  1  0
 24 61  1  0
 24 62  1  0
 25 63  1  0
M  END
>  <Ligand ID>  (1) 
LIG0000308

>  <Ligand>  (1) 
sphingosine 1-phosphate

>  <SMILES>  (1) 
CCCCCCCCCCCCC/C=C/[C@H]([C@H](COP(=O)(O)O)N)O

>  <CID>  (1) 
5283560.0

>  <ChEMBL ID>  (1) 
nan

>  <InChiKey>  (1) 
DUYSYHSSBDVJSM-KRWOKUGFSA-N

>  <InChi>  (1) 
InChI=1S/C18H38NO5P/c1-2-3-4-5-6-7-8-9-10-11-12-13-14-15-18(20)17(19)16-24-25(21,22)23/h14-15,17-18,20H,2-13,16,19H2,1H3,(H2,21,22,23)/b15-14+/t17-,18+/m0/s1

>  <IUPAC Name>  (1) 
[(E,2S,3R)-2-amino-3-hydroxyoctadec-4-enyl] dihydrogen phosphate

$$$$
