
     RDKit          3D

174176  0  0  0  0  0  0  0  0999 V2000
   -9.7733   -5.6461    1.1251 N   0  0  0  0  0  0  0  0  0  0  0  0
   -8.6854   -4.7721    0.7571 C   0  0  0  0  0  0  0  0  0  0  0  0
   -9.3190   -3.5088    0.0990 C   0  0  0  0  0  0  0  0  0  0  0  0
  -10.0568   -3.9931   -1.0889 C   0  0  0  0  0  0  0  0  0  0  0  0
  -10.7777   -2.9985   -1.8824 C   0  0  0  0  0  0  0  0  0  0  0  0
  -10.0016   -1.9200   -2.5486 C   0  0  1  0  0  0  0  0  0  0  0  0
  -11.0725   -1.1425   -3.3269 C   0  0  0  0  0  0  0  0  0  0  0  0
  -11.7054   -1.7514   -4.2396 O   0  0  0  0  0  0  0  0  0  0  0  0
  -11.3835    0.1993   -3.0667 N   0  0  0  0  0  0  0  0  0  0  0  0
  -12.4427    0.8111   -3.8618 C   0  0  2  0  0  0  0  0  0  0  0  0
  -11.9793    2.0852   -4.4466 C   0  0  0  0  0  0  0  0  0  0  0  0
  -10.8196    2.5087   -4.2044 O   0  0  0  0  0  0  0  0  0  0  0  0
  -12.8905    2.7697   -5.2661 O   0  0  0  0  0  0  0  0  0  0  0  0
  -13.5712    1.1682   -2.8983 C   0  0  2  0  0  0  0  0  0  0  0  0
  -14.6463    1.7605   -3.5395 O   0  0  0  0  0  0  0  0  0  0  0  0
  -13.0765    2.0045   -1.7615 C   0  0  0  0  0  0  0  0  0  0  0  0
   -9.4893   -0.9431   -1.6301 N   0  0  0  0  0  0  0  0  0  0  0  0
   -8.1107   -0.5783   -1.4495 C   0  0  0  0  0  0  0  0  0  0  0  0
   -7.1765   -1.1083   -2.0859 O   0  0  0  0  0  0  0  0  0  0  0  0
   -7.9020    0.4955   -0.4131 C   0  0  1  0  0  0  0  0  0  0  0  0
   -6.5734    0.4159    0.1974 N   0  0  0  0  0  0  0  0  0  0  0  0
   -6.6086   -0.0370    1.5733 C   0  0  0  0  0  0  0  0  0  0  0  0
   -7.8019   -0.3004    1.9735 O   0  0  0  0  0  0  0  0  0  0  0  0
   -5.5325   -0.2124    2.4837 C   0  0  1  0  0  0  0  0  0  0  0  0
   -4.1922   -0.0410    1.9677 N   0  0  0  0  0  0  0  0  0  0  0  0
   -3.1894   -0.7544    2.6867 C   0  0  0  0  0  0  0  0  0  0  0  0
   -3.6656   -1.4188    3.6889 O   0  0  0  0  0  0  0  0  0  0  0  0
   -1.7625   -0.8571    2.4961 C   0  0  1  0  0  0  0  0  0  0  0  0
   -1.1804   -0.4927    1.2352 N   0  0  0  0  0  0  0  0  0  0  0  0
   -1.0030   -1.5570    0.2977 C   0  0  0  0  0  0  0  0  0  0  0  0
   -1.4470   -2.6782    0.6444 O   0  0  0  0  0  0  0  0  0  0  0  0
   -0.3491   -1.4510   -1.0100 C   0  0  1  0  0  0  0  0  0  0  0  0
    0.6117   -0.3486   -1.0149 N   0  0  0  0  0  0  0  0  0  0  0  0
    1.9504   -0.4972   -1.3902 C   0  0  0  0  0  0  0  0  0  0  0  0
    2.4969   -1.5767   -1.7676 O   0  0  0  0  0  0  0  0  0  0  0  0
    2.9547    0.6622   -1.3713 C   0  0  1  0  0  0  0  0  0  0  0  0
    4.2689    0.0166   -1.1848 N   0  0  0  0  0  0  0  0  0  0  0  0
    4.4899   -0.3781    0.1785 C   0  0  0  0  0  0  0  0  0  0  0  0
    3.5271   -0.0985    0.9648 O   0  0  0  0  0  0  0  0  0  0  0  0
    5.6513   -1.0475    0.7261 C   0  0  2  0  0  0  0  0  0  0  0  0
    5.4667   -1.2626    2.2353 C   0  0  0  0  0  0  0  0  0  0  0  0
    6.4936   -0.4248    2.9124 C   0  0  0  0  0  0  0  0  0  0  0  0
    7.0964    0.3874    1.7794 C   0  0  0  0  0  0  0  0  0  0  0  0
    6.9189   -0.4283    0.5842 N   0  0  0  0  0  0  0  0  0  0  0  0
    7.9308   -0.5350   -0.4245 C   0  0  0  0  0  0  0  0  0  0  0  0
    7.6691   -1.2391   -1.4278 O   0  0  0  0  0  0  0  0  0  0  0  0
    9.2405    0.1668   -0.2590 C   0  0  1  0  0  0  0  0  0  0  0  0
   10.1427   -0.2780   -1.3483 N   0  0  0  0  0  0  0  0  0  0  0  0
   11.4140   -0.8554   -1.0053 C   0  0  0  0  0  0  0  0  0  0  0  0
   11.6455   -0.9267    0.2397 O   0  0  0  0  0  0  0  0  0  0  0  0
   12.3326   -1.3047   -2.0541 C   0  0  2  0  0  0  0  0  0  0  0  0
   12.4375   -2.8259   -2.1152 C   0  0  0  0  0  0  0  0  0  0  0  0
   13.7325   -2.9977   -2.9182 C   0  0  0  0  0  0  0  0  0  0  0  0
   14.2400   -1.5730   -3.1797 C   0  0  0  0  0  0  0  0  0  0  0  0
   13.6291   -0.7965   -2.0903 N   0  0  0  0  0  0  0  0  0  0  0  0
   14.4308   -0.6453   -1.0218 N   0  0  0  0  0  0  0  0  0  0  0  0
   15.2680    0.5362   -0.8284 C   0  0  0  0  0  0  0  0  0  0  0  0
   15.6325    1.3001   -1.7844 O   0  0  0  0  0  0  0  0  0  0  0  0
   15.6048    0.6906    0.5898 C   0  0  0  0  0  0  0  0  0  0  0  0
   14.8499   -0.4432    1.2513 C   0  0  0  0  0  0  0  0  0  0  0  0
   14.7498   -1.4549    0.1389 C   0  0  0  0  0  0  0  0  0  0  0  0
   16.1185   -2.0674   -0.0006 C   0  0  0  0  0  0  0  0  0  0  0  0
   16.8541   -1.8406   -0.9952 O   0  0  0  0  0  0  0  0  0  0  0  0
   16.5062   -2.9062    1.0533 O   0  0  0  0  0  0  0  0  0  0  0  0
    9.0978    1.6556   -0.4269 C   0  0  0  0  0  0  0  0  0  0  0  0
   10.3354    2.4539   -0.2235 C   0  0  0  0  0  0  0  0  0  0  0  0
   11.4928    2.2056   -1.1195 C   0  0  0  0  0  0  0  0  0  0  0  0
    9.9233    3.9266   -0.3800 C   0  0  0  0  0  0  0  0  0  0  0  0
    2.8161    1.4088   -2.6355 C   0  0  0  0  0  0  0  0  0  0  0  0
    3.7097    2.5554   -2.8208 C   0  0  0  0  0  0  0  0  0  0  0  0
    4.5231    2.8643   -1.8732 O   0  0  0  0  0  0  0  0  0  0  0  0
    3.7054    3.3108   -3.9800 O   0  0  0  0  0  0  0  0  0  0  0  0
    0.3632   -2.7902   -1.3209 C   0  0  0  0  0  0  0  0  0  0  0  0
   -0.8909   -4.1226   -1.3337 S   0  0  0  0  0  0  0  0  0  0  0  0
   -1.0456   -0.0251    3.5945 C   0  0  0  0  0  0  0  0  0  0  0  0
   -1.5535   -0.6937    5.1923 S   0  0  0  0  0  0  0  0  0  0  0  0
   -5.6883    0.7570    3.6897 C   0  0  0  0  0  0  0  0  0  0  0  0
   -6.9378    0.5195    4.4645 C   0  0  0  0  0  0  0  0  0  0  0  0
   -7.0826    1.4377    5.6843 C   0  0  0  0  0  0  0  0  0  0  0  0
   -7.1245    2.8222    5.3648 N   0  0  0  0  0  0  0  0  0  0  0  0
   -8.1540    3.4666    4.9339 C   0  0  0  0  0  0  0  0  0  0  0  0
   -7.9651    4.8742    4.6774 N   0  0  0  0  0  0  0  0  0  0  0  0
   -9.4246    2.8735    4.7150 N   0  0  0  0  0  0  0  0  0  0  0  0
   -7.9508    1.7907   -1.1813 C   0  0  0  0  0  0  0  0  0  0  0  0
   -7.7696    2.9889   -0.3266 C   0  0  0  0  0  0  0  0  0  0  0  0
   -8.8029    3.1594    0.7096 C   0  0  0  0  0  0  0  0  0  0  0  0
   -9.7739    2.3931    0.8929 O   0  0  0  0  0  0  0  0  0  0  0  0
   -8.6826    4.2875    1.5660 N   0  0  0  0  0  0  0  0  0  0  0  0
  -10.5927   -5.0568    1.3754 H   0  0  0  0  0  0  0  0  0  0  0  0
  -10.0383   -6.2879    0.3646 H   0  0  0  0  0  0  0  0  0  0  0  0
   -8.0188   -4.4911    1.5934 H   0  0  0  0  0  0  0  0  0  0  0  0
   -8.0706   -5.2485   -0.0300 H   0  0  0  0  0  0  0  0  0  0  0  0
   -9.9699   -3.0821    0.8875 H   0  0  0  0  0  0  0  0  0  0  0  0
   -8.5085   -2.8043   -0.0800 H   0  0  0  0  0  0  0  0  0  0  0  0
   -9.3393   -4.5897   -1.7645 H   0  0  0  0  0  0  0  0  0  0  0  0
  -10.7985   -4.8123   -0.7996 H   0  0  0  0  0  0  0  0  0  0  0  0
  -11.5580   -2.4426   -1.2505 H   0  0  0  0  0  0  0  0  0  0  0  0
  -11.4365   -3.4759   -2.6849 H   0  0  0  0  0  0  0  0  0  0  0  0
   -9.2212   -2.2809   -3.2152 H   0  0  0  0  0  0  0  0  0  0  0  0
  -10.9260    0.7921   -2.3569 H   0  0  0  0  0  0  0  0  0  0  0  0
  -12.8333    0.0993   -4.5981 H   0  0  0  0  0  0  0  0  0  0  0  0
  -12.6883    3.7341   -5.4865 H   0  0  0  0  0  0  0  0  0  0  0  0
  -13.9548    0.2032   -2.4501 H   0  0  0  0  0  0  0  0  0  0  0  0
  -15.2290    2.2588   -2.9196 H   0  0  0  0  0  0  0  0  0  0  0  0
  -12.4752    1.4137   -1.0449 H   0  0  0  0  0  0  0  0  0  0  0  0
  -13.9837    2.3197   -1.1651 H   0  0  0  0  0  0  0  0  0  0  0  0
  -12.5216    2.9124   -2.0955 H   0  0  0  0  0  0  0  0  0  0  0  0
  -10.2328   -0.4633   -1.0239 H   0  0  0  0  0  0  0  0  0  0  0  0
   -8.7130    0.4797    0.3145 H   0  0  0  0  0  0  0  0  0  0  0  0
   -5.6887    0.6548   -0.2620 H   0  0  0  0  0  0  0  0  0  0  0  0
   -5.6273   -1.2530    2.9648 H   0  0  0  0  0  0  0  0  0  0  0  0
   -3.8979    0.5228    1.1681 H   0  0  0  0  0  0  0  0  0  0  0  0
   -1.4689   -1.9206    2.7051 H   0  0  0  0  0  0  0  0  0  0  0  0
   -0.8857    0.4487    0.9463 H   0  0  0  0  0  0  0  0  0  0  0  0
   -1.0329   -1.3353   -1.8534 H   0  0  0  0  0  0  0  0  0  0  0  0
    0.2818    0.5921   -0.7226 H   0  0  0  0  0  0  0  0  0  0  0  0
    2.6796    1.2440   -0.4938 H   0  0  0  0  0  0  0  0  0  0  0  0
    4.9664   -0.1555   -1.9057 H   0  0  0  0  0  0  0  0  0  0  0  0
    5.6708   -2.1055    0.2947 H   0  0  0  0  0  0  0  0  0  0  0  0
    4.4289   -0.9339    2.5074 H   0  0  0  0  0  0  0  0  0  0  0  0
    5.5697   -2.2935    2.5324 H   0  0  0  0  0  0  0  0  0  0  0  0
    7.2671   -1.0265    3.4350 H   0  0  0  0  0  0  0  0  0  0  0  0
    6.0128    0.2124    3.6848 H   0  0  0  0  0  0  0  0  0  0  0  0
    6.5499    1.3355    1.7146 H   0  0  0  0  0  0  0  0  0  0  0  0
    8.1811    0.4689    1.9770 H   0  0  0  0  0  0  0  0  0  0  0  0
    9.6687   -0.1131    0.7157 H   0  0  0  0  0  0  0  0  0  0  0  0
    9.8235   -0.1590   -2.3394 H   0  0  0  0  0  0  0  0  0  0  0  0
   11.8474   -1.0509   -3.0509 H   0  0  0  0  0  0  0  0  0  0  0  0
   11.5895   -3.2637   -2.6774 H   0  0  0  0  0  0  0  0  0  0  0  0
   12.4754   -3.3086   -1.1349 H   0  0  0  0  0  0  0  0  0  0  0  0
   13.5098   -3.4498   -3.9002 H   0  0  0  0  0  0  0  0  0  0  0  0
   14.4927   -3.5888   -2.3687 H   0  0  0  0  0  0  0  0  0  0  0  0
   13.7831   -1.1797   -4.1226 H   0  0  0  0  0  0  0  0  0  0  0  0
   15.3099   -1.4752   -3.2081 H   0  0  0  0  0  0  0  0  0  0  0  0
   15.3383    1.6684    1.0321 H   0  0  0  0  0  0  0  0  0  0  0  0
   16.6838    0.4523    0.7272 H   0  0  0  0  0  0  0  0  0  0  0  0
   15.3929   -0.8393    2.1409 H   0  0  0  0  0  0  0  0  0  0  0  0
   13.8528   -0.0585    1.5006 H   0  0  0  0  0  0  0  0  0  0  0  0
   14.0113   -2.2013    0.4047 H   0  0  0  0  0  0  0  0  0  0  0  0
   17.4532   -3.2948    1.0714 H   0  0  0  0  0  0  0  0  0  0  0  0
    8.3333    2.0265    0.2595 H   0  0  0  0  0  0  0  0  0  0  0  0
    8.6683    1.8502   -1.4706 H   0  0  0  0  0  0  0  0  0  0  0  0
   10.6511    2.2954    0.8463 H   0  0  0  0  0  0  0  0  0  0  0  0
   11.2826    1.7311   -2.0819 H   0  0  0  0  0  0  0  0  0  0  0  0
   11.9131    3.2269   -1.4208 H   0  0  0  0  0  0  0  0  0  0  0  0
   12.3847    1.7650   -0.5832 H   0  0  0  0  0  0  0  0  0  0  0  0
   10.8132    4.5033    0.0078 H   0  0  0  0  0  0  0  0  0  0  0  0
    9.8979    4.1372   -1.4665 H   0  0  0  0  0  0  0  0  0  0  0  0
    9.0014    4.1619    0.1437 H   0  0  0  0  0  0  0  0  0  0  0  0
    2.8548    0.7053   -3.5015 H   0  0  0  0  0  0  0  0  0  0  0  0
    1.7596    1.8207   -2.6710 H   0  0  0  0  0  0  0  0  0  0  0  0
    4.5671    3.8195   -4.2409 H   0  0  0  0  0  0  0  0  0  0  0  0
    0.7308   -2.7302   -2.3441 H   0  0  0  0  0  0  0  0  0  0  0  0
    1.1330   -3.0411   -0.6146 H   0  0  0  0  0  0  0  0  0  0  0  0
   -0.3915   -5.1488   -2.1571 H   0  0  0  0  0  0  0  0  0  0  0  0
    0.0175   -0.1801    3.4544 H   0  0  0  0  0  0  0  0  0  0  0  0
   -1.4021    1.0293    3.5347 H   0  0  0  0  0  0  0  0  0  0  0  0
   -1.5151    0.2879    6.2013 H   0  0  0  0  0  0  0  0  0  0  0  0
   -4.8202    0.5601    4.3585 H   0  0  0  0  0  0  0  0  0  0  0  0
   -5.6484    1.7521    3.2464 H   0  0  0  0  0  0  0  0  0  0  0  0
   -7.0198   -0.5192    4.8504 H   0  0  0  0  0  0  0  0  0  0  0  0
   -7.8766    0.6872    3.8960 H   0  0  0  0  0  0  0  0  0  0  0  0
   -8.0785    1.1668    6.1232 H   0  0  0  0  0  0  0  0  0  0  0  0
   -6.2743    1.2553    6.4265 H   0  0  0  0  0  0  0  0  0  0  0  0
   -7.1147    5.1380    4.1455 H   0  0  0  0  0  0  0  0  0  0  0  0
   -8.6686    5.5628    5.0210 H   0  0  0  0  0  0  0  0  0  0  0  0
   -9.9553    2.3244    5.4162 H   0  0  0  0  0  0  0  0  0  0  0  0
   -9.8922    2.9810    3.7770 H   0  0  0  0  0  0  0  0  0  0  0  0
   -8.9088    1.8262   -1.7689 H   0  0  0  0  0  0  0  0  0  0  0  0
   -7.0931    1.7614   -1.9223 H   0  0  0  0  0  0  0  0  0  0  0  0
   -6.7934    2.8799    0.2354 H   0  0  0  0  0  0  0  0  0  0  0  0
   -7.7057    3.9183   -0.9751 H   0  0  0  0  0  0  0  0  0  0  0  0
   -9.4741    4.6398    2.1581 H   0  0  0  0  0  0  0  0  0  0  0  0
   -7.7951    4.8511    1.6628 H   0  0  0  0  0  0  0  0  0  0  0  0
  1  2  1  0
  2  3  1  0
  3  4  1  0
  4  5  1  0
  5  6  1  0
  6  7  1  0
  7  8  2  0
  7  9  1  0
  9 10  1  0
 10 11  1  0
 11 12  2  0
 11 13  1  0
 10 14  1  0
 14 15  1  0
 14 16  1  0
  6 17  1  0
 17 18  1  0
 18 19  2  0
 18 20  1  0
 20 21  1  0
 21 22  1  0
 22 23  2  0
 22 24  1  0
 24 25  1  0
 25 26  1  0
 26 27  2  0
 26 28  1  0
 28 29  1  0
 29 30  1  0
 30 31  2  0
 30 32  1  0
 32 33  1  0
 33 34  1  0
 34 35  2  0
 34 36  1  0
 36 37  1  0
 37 38  1  0
 38 39  2  0
 38 40  1  0
 40 41  1  0
 41 42  1  0
 42 43  1  0
 43 44  1  0
 44 45  1  0
 45 46  2  0
 45 47  1  0
 47 48  1  0
 48 49  1  0
 49 50  2  0
 49 51  1  0
 51 52  1  0
 52 53  1  0
 53 54  1  0
 54 55  1  0
 55 56  1  0
 56 57  1  0
 57 58  2  0
 57 59  1  0
 59 60  1  0
 60 61  1  0
 61 62  1  0
 62 63  2  0
 62 64  1  0
 47 65  1  0
 65 66  1  0
 66 67  1  0
 66 68  1  0
 36 69  1  0
 69 70  1  0
 70 71  2  0
 70 72  1  0
 32 73  1  0
 73 74  1  0
 28 75  1  0
 75 76  1  0
 24 77  1  0
 77 78  1  0
 78 79  1  0
 79 80  1  0
 80 81  2  3
 81 82  1  0
 81 83  1  0
 20 84  1  0
 84 85  1  0
 85 86  1  0
 86 87  2  0
 86 88  1  0
 44 40  1  0
 55 51  1  0
 61 56  1  0
  1 89  1  0
  1 90  1  0
  2 91  1  0
  2 92  1  0
  3 93  1  0
  3 94  1  0
  4 95  1  0
  4 96  1  0
  5 97  1  0
  5 98  1  0
  6 99  1  6
  9100  1  0
 10101  1  6
 13102  1  0
 14103  1  1
 15104  1  0
 16105  1  0
 16106  1  0
 16107  1  0
 17108  1  0
 20109  1  1
 21110  1  0
 24111  1  1
 25112  1  0
 28113  1  1
 29114  1  0
 32115  1  6
 33116  1  0
 36117  1  1
 37118  1  0
 40119  1  6
 41120  1  0
 41121  1  0
 42122  1  0
 42123  1  0
 43124  1  0
 43125  1  0
 47126  1  1
 48127  1  0
 51128  1  6
 52129  1  0
 52130  1  0
 53131  1  0
 53132  1  0
 54133  1  0
 54134  1  0
 59135  1  0
 59136  1  0
 60137  1  0
 60138  1  0
 61139  1  0
 64140  1  0
 65141  1  0
 65142  1  0
 66143  1  0
 67144  1  0
 67145  1  0
 67146  1  0
 68147  1  0
 68148  1  0
 68149  1  0
 69150  1  0
 69151  1  0
 72152  1  0
 73153  1  0
 73154  1  0
 74155  1  0
 75156  1  0
 75157  1  0
 76158  1  0
 77159  1  0
 77160  1  0
 78161  1  0
 78162  1  0
 79163  1  0
 79164  1  0
 82165  1  0
 82166  1  0
 83167  1  0
 83168  1  0
 84169  1  0
 84170  1  0
 85171  1  0
 85172  1  0
 88173  1  0
 88174  1  0
M  END
>  <Ligand ID>  (1) 
LIG0005362

>  <Ligand>  (1) 
CHEMBL204962

>  <SMILES>  (1) 
NCCCC[C@@H](C(=O)N[C@H](C(=O)O)[C@H](O)C)NC(=O)[C@@H](NC(=O)[C@@H](NC(=O)[C@@H](NC(=O)[C@@H](NC(=O)[C@@H](NC(=O)[C@@H]1CCCN1C(=O)[C@@H](NC(=O)[C@@H]1CCCN1N1C(=O)CCC1C(=O)O)CC(C)C)CC(=O)O)CS)CS)CCCN=C(N)N)CCC(=O)N

>  <CID>  (1) 
44270632.0

>  <ChEMBL ID>  (1) 
nan

>  <InChiKey>  (1) 
CABCBQTZBJGKDZ-UDMLSRSMSA-N

>  <InChi>  (1) 
InChI=1S/C52H86N16O18S2/c1-25(2)21-31(62-48(81)35-12-8-20-67(35)68-36(50(83)84)14-16-38(68)71)49(82)66-19-7-11-34(66)47(80)61-30(22-39(72)73)44(77)63-33(24-88)46(79)64-32(23-87)45(78)59-28(10-6-18-57-52(55)56)41(74)60-29(13-15-37(54)70)42(75)58-27(9-4-5-17-53)43(76)65-40(26(3)69)51(85)86/h25-36,40,69,87-88H,4-24,53H2,1-3H3,(H2,54,70)(H,58,75)(H,59,78)(H,60,74)(H,61,80)(H,62,81)(H,63,77)(H,64,79)(H,65,76)(H,72,73)(H,83,84)(H,85,86)(H4,55,56,57)/t26-,27+,28+,29+,30+,31+,32+,33+,34+,35+,36?,40+/m1/s1

>  <IUPAC Name>  (1) 
1-[(2S)-2-[[(2S)-1-[(2S)-2-[[(2S)-1-[[(2R)-1-[[(2R)-1-[[(2S)-1-[[(2S)-5-amino-1-[[(2S)-6-amino-1-[[(1S,2R)-1-carboxy-2-hydroxypropyl]amino]-1-oxohexan-2-yl]amino]-1,5-dioxopentan-2-yl]amino]-5-(diaminomethylideneamino)-1-oxopentan-2-yl]amino]-1-oxo-3-sulfanylpropan-2-yl]amino]-1-oxo-3-sulfanylpropan-2-yl]amino]-3-carboxy-1-oxopropan-2-yl]carbamoyl]pyrrolidin-1-yl]-4-methyl-1-oxopentan-2-yl]carbamoyl]pyrrolidin-1-yl]-5-oxopyrrolidine-2-carboxylic acid

$$$$
