
     RDKit          3D

 33 33  0  0  0  0  0  0  0  0999 V2000
    4.5328    0.8615   -0.0925 N   0  0  0  0  0  0  0  0  0  0  0  0
    3.5232   -0.1089   -0.3341 C   0  0  0  0  0  0  0  0  0  0  0  0
    2.3443   -0.0674    0.6012 C   0  0  1  0  0  0  0  0  0  0  0  0
    1.5121    1.2002    0.6687 C   0  0  0  0  0  0  0  0  0  0  0  0
    0.9470    0.0166    0.0319 C   0  0  2  0  0  0  0  0  0  0  0  0
   -0.1268   -0.8122    0.5863 C   0  0  0  0  0  0  0  0  0  0  0  0
    0.0672   -1.9059    1.4059 C   0  0  0  0  0  0  0  0  0  0  0  0
   -0.9853   -2.6516    1.9000 C   0  0  0  0  0  0  0  0  0  0  0  0
   -0.6802   -4.0431    2.9459 Cl  0  0  0  0  0  0  0  0  0  0  0  0
   -2.2904   -2.3010    1.5695 C   0  0  0  0  0  0  0  0  0  0  0  0
   -2.4620   -1.2168    0.7581 C   0  0  0  0  0  0  0  0  0  0  0  0
   -1.4384   -0.4635    0.2569 C   0  0  0  0  0  0  0  0  0  0  0  0
   -1.7303    0.6132   -0.5555 O   0  0  0  0  0  0  0  0  0  0  0  0
   -2.9917    1.0401   -0.9401 C   0  0  0  0  0  0  0  0  0  0  0  0
   -2.8046    2.2689   -1.8387 C   0  0  0  0  0  0  0  0  0  0  0  0
   -4.0467    2.7174   -2.2383 F   0  0  0  0  0  0  0  0  0  0  0  0
   -2.2181    3.2915   -1.1313 F   0  0  0  0  0  0  0  0  0  0  0  0
    0.6866    0.0000    0.0000 Cl  0  0  0  0  0  0  0  0  0  0  0  0
    4.7866    1.4546   -0.9046 H   0  0  0  0  0  0  0  0  0  0  0  0
    5.3548    0.5145    0.4420 H   0  0  0  0  0  0  0  0  0  0  0  0
    3.1584   -0.0012   -1.3662 H   0  0  0  0  0  0  0  0  0  0  0  0
    3.9860   -1.1089   -0.2432 H   0  0  0  0  0  0  0  0  0  0  0  0
    2.4456   -0.6810    1.5121 H   0  0  0  0  0  0  0  0  0  0  0  0
    1.8210    2.0611    0.0240 H   0  0  0  0  0  0  0  0  0  0  0  0
    1.3102    1.5308    1.6878 H   0  0  0  0  0  0  0  0  0  0  0  0
    0.9413    0.0198   -1.0909 H   0  0  0  0  0  0  0  0  0  0  0  0
    1.0720   -2.1854    1.6675 H   0  0  0  0  0  0  0  0  0  0  0  0
   -3.1441   -2.8693    1.9432 H   0  0  0  0  0  0  0  0  0  0  0  0
   -3.4786   -0.9429    0.5000 H   0  0  0  0  0  0  0  0  0  0  0  0
   -3.5475    1.4409   -0.0454 H   0  0  0  0  0  0  0  0  0  0  0  0
   -3.6564    0.3070   -1.3894 H   0  0  0  0  0  0  0  0  0  0  0  0
   -2.2014    2.0210   -2.7354 H   0  0  0  0  0  0  0  0  0  0  0  0
   -0.6866    0.0000    0.0000 H   0  0  0  0  0  0  0  0  0  0  0  0
  1  2  1  0
  2  3  1  0
  3  4  1  0
  4  5  1  0
  5  6  1  0
  6  7  2  0
  7  8  1  0
  8  9  1  0
  8 10  2  0
 10 11  1  0
 11 12  2  0
 12 13  1  0
 13 14  1  0
 14 15  1  0
 15 16  1  0
 15 17  1  0
  5  3  1  0
 12  6  1  0
  1 19  1  0
  1 20  1  0
  2 21  1  0
  2 22  1  0
  3 23  1  1
  4 24  1  0
  4 25  1  0
  5 26  1  6
  7 27  1  0
 10 28  1  0
 11 29  1  0
 14 30  1  0
 14 31  1  0
 15 32  1  0
 18 33  1  0
M  END
>  <Ligand ID>  (1) 
LIG0002364

>  <Ligand>  (1) 
CHEMBL3416057

>  <SMILES>  (1) 
NC[C@H]1C[C@@H]1c1cc(Cl)ccc1OCC(F)F.Cl

>  <CID>  (1) 
118733809.0

>  <ChEMBL ID>  (1) 
nan

>  <InChiKey>  (1) 
USCGTJANXHQSTR-JXLXBRSFSA-N

>  <InChi>  (1) 
InChI=1S/C12H14ClF2NO.ClH/c13-8-1-2-11(17-6-12(14)15)10(4-8)9-3-7(9)5-16;/h1-2,4,7,9,12H,3,5-6,16H2;1H/t7-,9+;/m1./s1

>  <IUPAC Name>  (1) 
[(1S,2S)-2-[5-chloro-2-(2,2-difluoroethoxy)phenyl]cyclopropyl]methanamine;hydrochloride

$$$$
