
     RDKit          3D

 85 89  0  0  0  0  0  0  0  0999 V2000
    1.1590   -3.0832    0.9752 O   0  0  0  0  0  0  0  0  0  0  0  0
    2.0091   -2.0207    0.6878 C   0  0  2  0  0  0  0  0  0  0  0  0
    1.9387   -1.5967   -0.7626 C   0  0  1  0  0  0  0  0  0  0  0  0
    0.7067   -0.8167   -1.0937 C   0  0  0  0  0  0  0  0  0  0  0  0
    0.4598    0.2658   -0.2838 O   0  0  0  0  0  0  0  0  0  0  0  0
   -0.9664    1.0339   -0.7948 P   0  0  0  0  0  0  0  0  0  0  0  0
   -1.4802    1.9352    0.3107 O   0  0  0  0  0  0  0  0  0  0  0  0
   -2.1899   -0.0714   -1.1650 O   0  0  0  0  0  0  0  0  0  0  0  0
   -2.6205   -1.0092    0.1462 P   0  0  0  0  0  0  0  0  0  0  0  0
   -1.6587   -0.7303    1.2722 O   0  0  0  0  0  0  0  0  0  0  0  0
   -4.1797   -0.6477    0.7194 O   0  0  0  0  0  0  0  0  0  0  0  0
   -4.5668   -1.8731    1.8226 P   0  0  0  0  0  0  0  0  0  0  0  0
   -4.0963   -1.5350    3.2312 O   0  0  0  0  0  0  0  0  0  0  0  0
   -6.2333   -2.1034    1.7998 O   0  0  0  0  0  0  0  0  0  0  0  0
   -6.8387   -0.8430    1.9303 C   0  0  0  0  0  0  0  0  0  0  0  0
   -8.3436   -1.0103    1.9140 C   0  0  1  0  0  0  0  0  0  0  0  0
   -8.9989    0.1828    2.0374 O   0  0  0  0  0  0  0  0  0  0  0  0
   -9.6995    0.4622    0.8879 C   0  0  2  0  0  0  0  0  0  0  0  0
   -9.2237   -0.4824   -0.1847 C   0  0  1  0  0  0  0  0  0  0  0  0
   -8.7850   -1.6749    0.6278 C   0  0  2  0  0  0  0  0  0  0  0  0
   -9.8400   -2.5738    0.8389 O   0  0  0  0  0  0  0  0  0  0  0  0
  -10.2772   -0.8624   -1.0165 O   0  0  0  0  0  0  0  0  0  0  0  0
   -9.5971    1.8214    0.4290 N   0  0  0  0  0  0  0  0  0  0  0  0
   -8.5711    2.6414    0.6996 C   0  0  0  0  0  0  0  0  0  0  0  0
   -8.6031    3.9265    0.1926 C   0  0  0  0  0  0  0  0  0  0  0  0
   -9.6675    4.3761   -0.5827 C   0  0  0  0  0  0  0  0  0  0  0  0
   -9.6732    5.5582   -1.0355 O   0  0  0  0  0  0  0  0  0  0  0  0
  -10.6695    3.5212   -0.8263 N   0  0  0  0  0  0  0  0  0  0  0  0
  -10.6272    2.2847   -0.3320 C   0  0  0  0  0  0  0  0  0  0  0  0
  -11.6130    1.5205   -0.6011 O   0  0  0  0  0  0  0  0  0  0  0  0
   -3.8232   -3.3356    1.4166 O   0  0  0  0  0  0  0  0  0  0  0  0
   -2.6394   -2.6492   -0.2951 O   0  0  0  0  0  0  0  0  0  0  0  0
   -0.5695    1.9096   -2.1857 O   0  0  0  0  0  0  0  0  0  0  0  0
    3.1027   -0.8185   -0.8432 O   0  0  0  0  0  0  0  0  0  0  0  0
    4.0570   -1.7564   -0.4676 C   0  0  2  0  0  0  0  0  0  0  0  0
    3.4773   -2.4562    0.7665 C   0  0  2  0  0  0  0  0  0  0  0  0
    3.6295   -3.8254    0.7073 O   0  0  0  0  0  0  0  0  0  0  0  0
    5.3473   -1.1710   -0.1551 N   0  0  0  0  0  0  0  0  0  0  0  0
    6.4703   -1.7171   -0.6771 C   0  0  0  0  0  0  0  0  0  0  0  0
    7.7278   -1.1964   -0.4100 C   0  0  0  0  0  0  0  0  0  0  0  0
    7.8577   -0.0792    0.4175 C   0  0  0  0  0  0  0  0  0  0  0  0
    6.7138    0.4290    0.9131 N   0  0  0  0  0  0  0  0  0  0  0  0
    5.4960   -0.0949    0.6396 C   0  0  0  0  0  0  0  0  0  0  0  0
    4.4526    0.4391    1.1446 O   0  0  0  0  0  0  0  0  0  0  0  0
    9.1306    0.4865    0.7169 N   0  0  0  0  0  0  0  0  0  0  0  0
    9.1836    1.5688    1.5258 O   0  0  0  0  0  0  0  0  0  0  0  0
    9.4935    2.6656    0.7243 C   0  0  0  0  0  0  0  0  0  0  0  0
   10.7964    2.4131    0.0847 C   0  0  0  0  0  0  0  0  0  0  0  0
   11.9310    2.8473    0.7771 C   0  0  0  0  0  0  0  0  0  0  0  0
   13.1934    2.6503    0.2483 C   0  0  0  0  0  0  0  0  0  0  0  0
   13.3507    2.0204   -0.9741 C   0  0  0  0  0  0  0  0  0  0  0  0
   12.2277    1.5902   -1.6602 C   0  0  0  0  0  0  0  0  0  0  0  0
   10.9537    1.7854   -1.1336 C   0  0  0  0  0  0  0  0  0  0  0  0
    1.3741   -3.3318    1.9217 H   0  0  0  0  0  0  0  0  0  0  0  0
    1.8358   -1.1313    1.3230 H   0  0  0  0  0  0  0  0  0  0  0  0
    1.9831   -2.4620   -1.4351 H   0  0  0  0  0  0  0  0  0  0  0  0
    0.7659   -0.5566   -2.1647 H   0  0  0  0  0  0  0  0  0  0  0  0
   -0.1453   -1.5340   -1.0064 H   0  0  0  0  0  0  0  0  0  0  0  0
   -6.4783   -0.4355    2.8809 H   0  0  0  0  0  0  0  0  0  0  0  0
   -6.4774   -0.2167    1.1092 H   0  0  0  0  0  0  0  0  0  0  0  0
   -8.6133   -1.7300    2.7269 H   0  0  0  0  0  0  0  0  0  0  0  0
  -10.7784    0.2082    1.0858 H   0  0  0  0  0  0  0  0  0  0  0  0
   -8.3559   -0.0892   -0.7191 H   0  0  0  0  0  0  0  0  0  0  0  0
   -7.9350   -2.1664    0.1081 H   0  0  0  0  0  0  0  0  0  0  0  0
   -9.4568   -3.4903    0.9911 H   0  0  0  0  0  0  0  0  0  0  0  0
   -9.8898   -1.0842   -1.8952 H   0  0  0  0  0  0  0  0  0  0  0  0
   -7.7551    2.2727    1.3030 H   0  0  0  0  0  0  0  0  0  0  0  0
   -7.7953    4.6087    0.3918 H   0  0  0  0  0  0  0  0  0  0  0  0
  -11.4790    3.8290   -1.4030 H   0  0  0  0  0  0  0  0  0  0  0  0
   -4.4029   -4.0614    1.7883 H   0  0  0  0  0  0  0  0  0  0  0  0
   -2.8658   -2.6910   -1.2611 H   0  0  0  0  0  0  0  0  0  0  0  0
   -0.7330    1.3470   -3.0076 H   0  0  0  0  0  0  0  0  0  0  0  0
    4.1693   -2.4690   -1.2848 H   0  0  0  0  0  0  0  0  0  0  0  0
    3.9956   -2.0024    1.6377 H   0  0  0  0  0  0  0  0  0  0  0  0
    4.3764   -3.9995    0.0540 H   0  0  0  0  0  0  0  0  0  0  0  0
    6.3476   -2.5765   -1.3114 H   0  0  0  0  0  0  0  0  0  0  0  0
    8.6044   -1.6604   -0.8458 H   0  0  0  0  0  0  0  0  0  0  0  0
    9.9666    0.0336    0.2934 H   0  0  0  0  0  0  0  0  0  0  0  0
    8.7050    2.6937   -0.0771 H   0  0  0  0  0  0  0  0  0  0  0  0
    9.4851    3.5952    1.3297 H   0  0  0  0  0  0  0  0  0  0  0  0
   11.8505    3.3474    1.7423 H   0  0  0  0  0  0  0  0  0  0  0  0
   14.0484    3.0102    0.8326 H   0  0  0  0  0  0  0  0  0  0  0  0
   14.3610    1.8837   -1.3572 H   0  0  0  0  0  0  0  0  0  0  0  0
   12.3939    1.1051   -2.6072 H   0  0  0  0  0  0  0  0  0  0  0  0
   10.0845    1.4526   -1.6643 H   0  0  0  0  0  0  0  0  0  0  0  0
  1  2  1  0
  2  3  1  0
  3  4  1  0
  4  5  1  0
  5  6  1  0
  6  7  2  0
  6  8  1  0
  8  9  1  0
  9 10  2  0
  9 11  1  0
 11 12  1  0
 12 13  2  0
 12 14  1  0
 14 15  1  0
 15 16  1  0
 16 17  1  0
 17 18  1  0
 18 19  1  0
 19 20  1  0
 20 21  1  0
 19 22  1  0
 18 23  1  0
 23 24  1  0
 24 25  2  0
 25 26  1  0
 26 27  2  0
 26 28  1  0
 28 29  1  0
 29 30  2  0
 12 31  1  0
  9 32  1  0
  6 33  1  0
  3 34  1  0
 34 35  1  0
 35 36  1  0
 36 37  1  0
 35 38  1  0
 38 39  1  0
 39 40  2  0
 40 41  1  0
 41 42  2  0
 42 43  1  0
 43 44  2  0
 41 45  1  0
 45 46  1  0
 46 47  1  0
 47 48  1  0
 48 49  2  0
 49 50  1  0
 50 51  2  0
 51 52  1  0
 52 53  2  0
 36  2  1  0
 43 38  1  0
 53 48  1  0
 20 16  1  0
 29 23  1  0
  1 54  1  0
  2 55  1  1
  3 56  1  6
  4 57  1  0
  4 58  1  0
 15 59  1  0
 15 60  1  0
 16 61  1  1
 18 62  1  1
 19 63  1  6
 20 64  1  6
 21 65  1  0
 22 66  1  0
 24 67  1  0
 25 68  1  0
 28 69  1  0
 31 70  1  0
 32 71  1  0
 33 72  1  0
 35 73  1  6
 36 74  1  1
 37 75  1  0
 39 76  1  0
 40 77  1  0
 45 78  1  0
 47 79  1  0
 47 80  1  0
 49 81  1  0
 50 82  1  0
 51 83  1  0
 52 84  1  0
 53 85  1  0
M  END
>  <Ligand ID>  (1) 
LIG0002709

>  <Ligand>  (1) 
CHEMBL3220054

>  <SMILES>  (1) 
O[C@@H]1[C@@H](COP(=O)(OP(=O)(OP(=O)(OC[C@H]2O[C@H]([C@@H]([C@@H]2O)O)n2ccc(=O)[nH]c2=O)O)O)O)O[C@H]([C@@H]1O)n1ccc(nc1=O)NOCc1ccccc1

>  <CID>  (1) 
90666798.0

>  <ChEMBL ID>  (1) 
nan

>  <InChiKey>  (1) 
PAOIUUIZGOVIOK-XIZJPJQXSA-N

>  <InChi>  (1) 
InChI=1S/C25H32N5O20P3/c31-17-7-9-30(25(37)27-17)23-21(35)19(33)15(48-23)12-46-52(40,41)50-53(42,43)49-51(38,39)45-11-14-18(32)20(34)22(47-14)29-8-6-16(26-24(29)36)28-44-10-13-4-2-1-3-5-13/h1-9,14-15,18-23,32-35H,10-12H2,(H,38,39)(H,40,41)(H,42,43)(H,26,28,36)(H,27,31,37)/t14-,15-,18-,19-,20-,21-,22-,23-/m1/s1

>  <IUPAC Name>  (1) 
[[(2R,3S,4R,5R)-3,4-dihydroxy-5-[2-oxo-4-(phenylmethoxyamino)pyrimidin-1-yl]oxolan-2-yl]methoxy-hydroxyphosphoryl] [[(2R,3S,4R,5R)-5-(2,4-dioxopyrimidin-1-yl)-3,4-dihydroxyoxolan-2-yl]methoxy-hydroxyphosphoryl] hydrogen phosphate

$$$$
