
     RDKit          3D

 40 42  0  0  0  0  0  0  0  0999 V2000
   -1.7906   -1.3231   -0.5322 O   0  0  0  0  0  0  0  0  0  0  0  0
   -1.5261   -0.1371   -0.2611 C   0  0  0  0  0  0  0  0  0  0  0  0
   -2.4849    0.8054    0.1547 N   0  0  0  0  0  0  0  0  0  0  0  0
   -3.8638    0.5774    0.3303 C   0  0  0  0  0  0  0  0  0  0  0  0
   -4.6479    1.6366    0.7473 C   0  0  0  0  0  0  0  0  0  0  0  0
   -5.9974    1.4818    0.9373 C   0  0  0  0  0  0  0  0  0  0  0  0
   -6.6485    0.2840    0.7293 C   0  0  0  0  0  0  0  0  0  0  0  0
   -5.8817   -0.7781    0.3145 C   0  0  0  0  0  0  0  0  0  0  0  0
   -4.5075   -0.6164    0.1220 C   0  0  0  0  0  0  0  0  0  0  0  0
   -6.6404   -2.3253    0.0317 Cl  0  0  0  0  0  0  0  0  0  0  0  0
   -8.1102    0.1098    0.9334 C   0  0  0  0  0  0  0  0  0  0  0  0
   -8.3989   -0.8476    1.8892 F   0  0  0  0  0  0  0  0  0  0  0  0
   -8.6294   -0.2443   -0.3053 F   0  0  0  0  0  0  0  0  0  0  0  0
   -8.6396    1.3043    1.3905 F   0  0  0  0  0  0  0  0  0  0  0  0
   -0.0796    0.2639   -0.4021 C   0  0  0  0  0  0  0  0  0  0  0  0
    0.6428   -0.9855   -0.8591 C   0  0  0  0  0  0  0  0  0  0  0  0
    2.0814   -0.6452   -1.0150 C   0  0  0  0  0  0  0  0  0  0  0  0
    2.6174   -0.1990   -2.1321 O   0  0  0  0  0  0  0  0  0  0  0  0
    3.9038    0.0149   -1.9715 N   0  0  0  0  0  0  0  0  0  0  0  0
    4.2306   -0.3044   -0.6918 C   0  0  0  0  0  0  0  0  0  0  0  0
    3.0818   -0.7111   -0.1200 N   0  0  0  0  0  0  0  0  0  0  0  0
    5.5688   -0.2043   -0.1189 C   0  0  0  0  0  0  0  0  0  0  0  0
    6.5821    0.2491   -0.9375 C   0  0  0  0  0  0  0  0  0  0  0  0
    7.8636    0.3557   -0.4241 C   0  0  0  0  0  0  0  0  0  0  0  0
    8.1018    0.0079    0.8905 C   0  0  0  0  0  0  0  0  0  0  0  0
    7.0685   -0.4425    1.6852 C   0  0  0  0  0  0  0  0  0  0  0  0
    5.7631   -0.5622    1.1994 C   0  0  0  0  0  0  0  0  0  0  0  0
    4.4743   -1.1344    2.2255 Cl  0  0  0  0  0  0  0  0  0  0  0  0
    9.3774    0.1338    1.3354 F   0  0  0  0  0  0  0  0  0  0  0  0
   -2.1086    1.7815    0.3507 H   0  0  0  0  0  0  0  0  0  0  0  0
   -4.2129    2.6226    0.9358 H   0  0  0  0  0  0  0  0  0  0  0  0
   -6.5667    2.3282    1.2608 H   0  0  0  0  0  0  0  0  0  0  0  0
   -3.9807   -1.4892   -0.2011 H   0  0  0  0  0  0  0  0  0  0  0  0
    0.2567    0.5449    0.6143 H   0  0  0  0  0  0  0  0  0  0  0  0
   -0.0105    1.0725   -1.1354 H   0  0  0  0  0  0  0  0  0  0  0  0
    0.5506   -1.7131   -0.0130 H   0  0  0  0  0  0  0  0  0  0  0  0
    0.1879   -1.4491   -1.7313 H   0  0  0  0  0  0  0  0  0  0  0  0
    6.3868    0.5237   -1.9802 H   0  0  0  0  0  0  0  0  0  0  0  0
    8.6702    0.7128   -1.0629 H   0  0  0  0  0  0  0  0  0  0  0  0
    7.3162   -0.6987    2.7025 H   0  0  0  0  0  0  0  0  0  0  0  0
  1  2  2  0
  2  3  1  0
  3  4  1  0
  4  5  2  0
  5  6  1  0
  6  7  2  0
  7  8  1  0
  8  9  2  0
  8 10  1  0
  7 11  1  0
 11 12  1  0
 11 13  1  0
 11 14  1  0
  2 15  1  0
 15 16  1  0
 16 17  1  0
 17 18  1  0
 18 19  1  0
 19 20  2  0
 20 21  1  0
 20 22  1  0
 22 23  2  0
 23 24  1  0
 24 25  2  0
 25 26  1  0
 26 27  2  0
 27 28  1  0
 25 29  1  0
  9  4  1  0
 21 17  2  0
 27 22  1  0
  3 30  1  0
  5 31  1  0
  6 32  1  0
  9 33  1  0
 15 34  1  0
 15 35  1  0
 16 36  1  0
 16 37  1  0
 23 38  1  0
 24 39  1  0
 26 40  1  0
M  END
>  <Ligand ID>  (1) 
LIG0001224

>  <Ligand>  (1) 
CHEMBL524680

>  <SMILES>  (1) 
O=C(Nc1ccc(c(c1)Cl)C(F)(F)F)CCc1onc(n1)c1ccc(cc1Cl)F

>  <CID>  (1) 
25034206.0

>  <ChEMBL ID>  (1) 
nan

>  <InChiKey>  (1) 
WLVORWCZCJGRGP-UHFFFAOYSA-N

>  <InChi>  (1) 
InChI=1S/C18H11Cl2F4N3O2/c19-13-7-9(21)1-3-11(13)17-26-16(29-27-17)6-5-15(28)25-10-2-4-12(14(20)8-10)18(22,23)24/h1-4,7-8H,5-6H2,(H,25,28)

>  <IUPAC Name>  (1) 
3-[3-(2-chloro-4-fluorophenyl)-1,2,4-oxadiazol-5-yl]-N-[3-chloro-4-(trifluoromethyl)phenyl]propanamide

$$$$
