
     RDKit          3D

 34 36  0  0  0  0  0  0  0  0999 V2000
   -4.0056   -1.7805   -1.8064 C   0  0  0  0  0  0  0  0  0  0  0  0
   -4.2236   -0.4307   -1.9885 C   0  0  0  0  0  0  0  0  0  0  0  0
   -3.3744    0.4979   -1.4273 C   0  0  0  0  0  0  0  0  0  0  0  0
   -2.2802    0.1504   -0.6671 C   0  0  0  0  0  0  0  0  0  0  0  0
   -2.0840   -1.1899   -0.5001 N   0  0  0  0  0  0  0  0  0  0  0  0
   -2.8893   -2.1103   -1.0314 C   0  0  0  0  0  0  0  0  0  0  0  0
   -1.3744    1.1229   -0.0680 C   0  0  0  0  0  0  0  0  0  0  0  0
   -1.5268    2.4868   -0.2054 C   0  0  0  0  0  0  0  0  0  0  0  0
   -0.6720    3.4085    0.3599 C   0  0  0  0  0  0  0  0  0  0  0  0
    0.3781    2.9355    1.0927 C   0  0  0  0  0  0  0  0  0  0  0  0
    0.5475    1.5685    1.2418 C   0  0  0  0  0  0  0  0  0  0  0  0
   -0.2988    0.6383    0.6825 C   0  0  0  0  0  0  0  0  0  0  0  0
   -0.1605   -0.7251    0.8106 O   0  0  0  0  0  0  0  0  0  0  0  0
    0.8128   -1.4340    1.4929 C   0  0  0  0  0  0  0  0  0  0  0  0
    2.2014   -1.2105    1.0172 C   0  0  0  0  0  0  0  0  0  0  0  0
    3.2428   -0.7988    1.6436 N   0  0  0  0  0  0  0  0  0  0  0  0
    4.4030   -0.7243    0.7940 C   0  0  0  0  0  0  0  0  0  0  0  0
    3.8410   -0.7760   -0.6276 C   0  0  0  0  0  0  0  0  0  0  0  0
    2.5744   -1.4665   -0.3501 N   0  0  0  0  0  0  0  0  0  0  0  0
   -4.6368   -2.5541   -2.2215 H   0  0  0  0  0  0  0  0  0  0  0  0
   -5.0891   -0.1153   -2.5909 H   0  0  0  0  0  0  0  0  0  0  0  0
   -3.6053    1.5364   -1.6109 H   0  0  0  0  0  0  0  0  0  0  0  0
   -2.6379   -3.1630   -0.8334 H   0  0  0  0  0  0  0  0  0  0  0  0
   -2.3506    2.8849   -0.7808 H   0  0  0  0  0  0  0  0  0  0  0  0
   -0.8362    4.4717    0.2216 H   0  0  0  0  0  0  0  0  0  0  0  0
    1.0813    3.6366    1.5590 H   0  0  0  0  0  0  0  0  0  0  0  0
    1.3786    1.2458    1.8237 H   0  0  0  0  0  0  0  0  0  0  0  0
    0.8068   -1.0637    2.5568 H   0  0  0  0  0  0  0  0  0  0  0  0
    0.5349   -2.5077    1.4444 H   0  0  0  0  0  0  0  0  0  0  0  0
    5.1090   -1.5683    0.9622 H   0  0  0  0  0  0  0  0  0  0  0  0
    4.9351    0.2254    0.9603 H   0  0  0  0  0  0  0  0  0  0  0  0
    4.5218   -1.3813   -1.2485 H   0  0  0  0  0  0  0  0  0  0  0  0
    3.6487    0.2416   -1.0179 H   0  0  0  0  0  0  0  0  0  0  0  0
    2.0283   -2.0514   -1.0346 H   0  0  0  0  0  0  0  0  0  0  0  0
  1  2  2  0
  2  3  1  0
  3  4  2  0
  4  5  1  0
  5  6  2  0
  4  7  1  0
  7  8  2  0
  8  9  1  0
  9 10  2  0
 10 11  1  0
 11 12  2  0
 12 13  1  0
 13 14  1  0
 14 15  1  0
 15 16  2  0
 16 17  1  0
 17 18  1  0
 18 19  1  0
  6  1  1  0
 12  7  1  0
 19 15  1  0
  1 20  1  0
  2 21  1  0
  3 22  1  0
  6 23  1  0
  8 24  1  0
  9 25  1  0
 10 26  1  0
 11 27  1  0
 14 28  1  0
 14 29  1  0
 17 30  1  0
 17 31  1  0
 18 32  1  0
 18 33  1  0
 19 34  1  0
M  END
>  <Ligand ID>  (1) 
LIG0003189

>  <Ligand>  (1) 
CHEMBL420683

>  <SMILES>  (1) 
c1ccc(nc1)c1ccccc1OCC1=NCCN1

>  <CID>  (1) 
10015132.0

>  <ChEMBL ID>  (1) 
nan

>  <InChiKey>  (1) 
FVHLKYRSFYIRKU-UHFFFAOYSA-N

>  <InChi>  (1) 
InChI=1S/C15H15N3O/c1-2-7-14(19-11-15-17-9-10-18-15)12(5-1)13-6-3-4-8-16-13/h1-8H,9-11H2,(H,17,18)

>  <IUPAC Name>  (1) 
2-[2-(4,5-dihydro-1H-imidazol-2-ylmethoxy)phenyl]pyridine

$$$$
