
     RDKit          3D

 91 92  0  0  0  0  0  0  0  0999 V2000
   -0.9931   -0.0475   -0.0685 C   0  0  0  0  0  0  0  0  0  0  0  0
    0.4457    0.3262    0.0138 C   0  0  0  0  0  0  0  0  0  0  0  0
    0.8324    1.4829   -0.2924 O   0  0  0  0  0  0  0  0  0  0  0  0
    1.3523   -0.6360    0.4379 O   0  0  0  0  0  0  0  0  0  0  0  0
  -12.6784    1.7068    1.3536 O   0  0  0  0  0  0  0  0  0  0  0  0
  -11.5853    1.3846    2.1780 C   0  0  0  0  0  0  0  0  0  0  0  0
  -10.7017    0.4715    1.3943 C   0  0  0  0  0  0  0  0  0  0  0  0
   -9.5279    0.9323    0.8326 C   0  0  0  0  0  0  0  0  0  0  0  0
   -8.6841    0.1009    0.0936 C   0  0  0  0  0  0  0  0  0  0  0  0
   -9.0710   -1.2082   -0.0544 C   0  0  0  0  0  0  0  0  0  0  0  0
  -10.2547   -1.6947    0.5058 C   0  0  0  0  0  0  0  0  0  0  0  0
  -11.0808   -0.8615    1.2347 C   0  0  0  0  0  0  0  0  0  0  0  0
  -12.2663   -1.3244    1.8029 O   0  0  0  0  0  0  0  0  0  0  0  0
   -7.4549    0.6916   -0.4619 C   0  0  2  0  0  0  0  0  0  0  0  0
   -6.5620   -0.4054   -1.0033 C   0  0  0  0  0  0  0  0  0  0  0  0
   -5.3957    0.2270   -1.5311 N   0  0  0  0  0  0  0  0  0  0  0  0
   -4.4260   -0.6250   -2.1336 C   0  0  0  0  0  0  0  0  0  0  0  0
   -3.7830   -1.4709   -1.0620 C   0  0  0  0  0  0  0  0  0  0  0  0
   -3.1297   -0.5383   -0.0676 C   0  0  0  0  0  0  0  0  0  0  0  0
   -2.0854    0.3312   -0.6896 C   0  0  0  0  0  0  0  0  0  0  0  0
   -0.9928   -0.5245   -1.3117 C   0  0  0  0  0  0  0  0  0  0  0  0
    0.0216    0.3955   -1.9171 C   0  0  0  0  0  0  0  0  0  0  0  0
    0.6266    1.2571   -1.0054 O   0  0  0  0  0  0  0  0  0  0  0  0
    1.3064    0.5536   -0.0093 C   0  0  0  0  0  0  0  0  0  0  0  0
    2.3858   -0.3194   -0.5562 C   0  0  0  0  0  0  0  0  0  0  0  0
    3.0791   -1.0414    0.5570 C   0  0  0  0  0  0  0  0  0  0  0  0
    3.7512   -0.0715    1.4789 C   0  0  0  0  0  0  0  0  0  0  0  0
    4.7966    0.7254    0.8207 C   0  0  0  0  0  0  0  0  0  0  0  0
    4.6338    1.9403    0.2205 C   0  0  0  0  0  0  0  0  0  0  0  0
    5.6817    2.6341   -0.3865 C   0  0  0  0  0  0  0  0  0  0  0  0
    6.9340    2.0417   -0.3654 C   0  0  0  0  0  0  0  0  0  0  0  0
    7.1530    0.8189    0.2260 C   0  0  0  0  0  0  0  0  0  0  0  0
    6.0829    0.1881    0.8049 C   0  0  0  0  0  0  0  0  0  0  0  0
    8.4387    0.1960    0.2572 N   0  0  0  0  0  0  0  0  0  0  0  0
    8.7407   -1.0864    0.8524 C   0  0  0  0  0  0  0  0  0  0  0  0
    9.9995   -1.5337    0.2136 C   0  0  0  0  0  0  0  0  0  0  0  0
   10.4018   -2.7407    0.1566 O   0  0  0  0  0  0  0  0  0  0  0  0
   10.6362   -0.3744   -0.3008 N   0  0  0  0  0  0  0  0  0  0  0  0
    9.6693    0.6729   -0.2673 C   0  0  0  0  0  0  0  0  0  0  0  0
    9.9212    1.8345   -0.6578 O   0  0  0  0  0  0  0  0  0  0  0  0
   12.0087   -0.3514   -0.7505 C   0  0  0  0  0  0  0  0  0  0  0  0
   12.9536   -0.0045    0.3495 C   0  0  0  0  0  0  0  0  0  0  0  0
   14.1777    0.0397    0.0464 O   0  0  0  0  0  0  0  0  0  0  0  0
   12.5128    0.2660    1.6802 N   0  0  0  0  0  0  0  0  0  0  0  0
   -6.8205    1.4209    0.5332 O   0  0  0  0  0  0  0  0  0  0  0  0
   -1.0500   -0.9879   -0.6596 H   0  0  0  0  0  0  0  0  0  0  0  0
   -1.3048   -0.2645    0.9775 H   0  0  0  0  0  0  0  0  0  0  0  0
   -1.6082    0.7192   -0.5418 H   0  0  0  0  0  0  0  0  0  0  0  0
    2.3256   -0.5925    0.1332 H   0  0  0  0  0  0  0  0  0  0  0  0
  -12.2882    2.1265    0.5343 H   0  0  0  0  0  0  0  0  0  0  0  0
  -11.0169    2.2896    2.4397 H   0  0  0  0  0  0  0  0  0  0  0  0
  -11.9742    0.8483    3.0653 H   0  0  0  0  0  0  0  0  0  0  0  0
   -9.2928    1.9772    0.9947 H   0  0  0  0  0  0  0  0  0  0  0  0
   -8.4607   -1.8994   -0.6124 H   0  0  0  0  0  0  0  0  0  0  0  0
  -10.5339   -2.7501    0.3673 H   0  0  0  0  0  0  0  0  0  0  0  0
  -12.9797   -1.7848    1.2337 H   0  0  0  0  0  0  0  0  0  0  0  0
   -7.7398    1.3538   -1.3091 H   0  0  0  0  0  0  0  0  0  0  0  0
   -6.3126   -1.0662   -0.1583 H   0  0  0  0  0  0  0  0  0  0  0  0
   -7.1253   -0.9787   -1.7863 H   0  0  0  0  0  0  0  0  0  0  0  0
   -5.5910    1.1061   -2.0565 H   0  0  0  0  0  0  0  0  0  0  0  0
   -4.8581   -1.3322   -2.8772 H   0  0  0  0  0  0  0  0  0  0  0  0
   -3.6633   -0.0383   -2.6989 H   0  0  0  0  0  0  0  0  0  0  0  0
   -4.5933   -2.0237   -0.5453 H   0  0  0  0  0  0  0  0  0  0  0  0
   -3.0493   -2.1927   -1.4903 H   0  0  0  0  0  0  0  0  0  0  0  0
   -3.9445    0.1242    0.3234 H   0  0  0  0  0  0  0  0  0  0  0  0
   -2.7277   -1.1053    0.8026 H   0  0  0  0  0  0  0  0  0  0  0  0
   -1.6426    0.9463    0.1361 H   0  0  0  0  0  0  0  0  0  0  0  0
   -2.5249    1.0322   -1.3983 H   0  0  0  0  0  0  0  0  0  0  0  0
   -1.4421   -1.0991   -2.1530 H   0  0  0  0  0  0  0  0  0  0  0  0
   -0.6091   -1.2315   -0.5748 H   0  0  0  0  0  0  0  0  0  0  0  0
   -0.5575    1.0785   -2.6058 H   0  0  0  0  0  0  0  0  0  0  0  0
    0.7571   -0.0969   -2.5827 H   0  0  0  0  0  0  0  0  0  0  0  0
    1.7160    1.2827    0.6968 H   0  0  0  0  0  0  0  0  0  0  0  0
    0.5904   -0.0692    0.5929 H   0  0  0  0  0  0  0  0  0  0  0  0
    3.1610    0.3161   -1.0775 H   0  0  0  0  0  0  0  0  0  0  0  0
    2.0021   -1.0654   -1.2885 H   0  0  0  0  0  0  0  0  0  0  0  0
    3.8058   -1.7994    0.1897 H   0  0  0  0  0  0  0  0  0  0  0  0
    2.2849   -1.5768    1.1549 H   0  0  0  0  0  0  0  0  0  0  0  0
    3.0102    0.5469    2.0320 H   0  0  0  0  0  0  0  0  0  0  0  0
    4.2235   -0.6981    2.2954 H   0  0  0  0  0  0  0  0  0  0  0  0
    3.6791    2.4249    0.1917 H   0  0  0  0  0  0  0  0  0  0  0  0
    5.5296    3.5958   -0.8565 H   0  0  0  0  0  0  0  0  0  0  0  0
    7.7289    2.5772   -0.8304 H   0  0  0  0  0  0  0  0  0  0  0  0
    6.2694   -0.7783    1.2687 H   0  0  0  0  0  0  0  0  0  0  0  0
    8.7830   -1.0906    1.9435 H   0  0  0  0  0  0  0  0  0  0  0  0
    7.9358   -1.7844    0.5157 H   0  0  0  0  0  0  0  0  0  0  0  0
   12.1743    0.3332   -1.6111 H   0  0  0  0  0  0  0  0  0  0  0  0
   12.3143   -1.3635   -1.0945 H   0  0  0  0  0  0  0  0  0  0  0  0
   12.6797    1.2182    2.1162 H   0  0  0  0  0  0  0  0  0  0  0  0
   12.0251   -0.4825    2.2190 H   0  0  0  0  0  0  0  0  0  0  0  0
   -7.1555    1.2103    1.4329 H   0  0  0  0  0  0  0  0  0  0  0  0
  1  2  1  0
  2  3  2  0
  2  4  1  0
  5  6  1  0
  6  7  1  0
  7  8  2  0
  8  9  1  0
  9 10  2  0
 10 11  1  0
 11 12  2  0
 12 13  1  0
  9 14  1  0
 14 15  1  0
 15 16  1  0
 16 17  1  0
 17 18  1  0
 18 19  1  0
 19 20  1  0
 20 21  1  0
 21 22  1  0
 22 23  1  0
 23 24  1  0
 24 25  1  0
 25 26  1  0
 26 27  1  0
 27 28  1  0
 28 29  2  0
 29 30  1  0
 30 31  2  0
 31 32  1  0
 32 33  2  0
 32 34  1  0
 34 35  1  0
 35 36  1  0
 36 37  2  0
 36 38  1  0
 38 39  1  0
 39 40  2  0
 38 41  1  0
 41 42  1  0
 42 43  2  0
 42 44  1  0
 14 45  1  0
 12  7  1  0
 33 28  1  0
 39 34  1  0
  1 46  1  0
  1 47  1  0
  1 48  1  0
  4 49  1  0
  5 50  1  0
  6 51  1  0
  6 52  1  0
  8 53  1  0
 10 54  1  0
 11 55  1  0
 13 56  1  0
 14 57  1  6
 15 58  1  0
 15 59  1  0
 16 60  1  0
 17 61  1  0
 17 62  1  0
 18 63  1  0
 18 64  1  0
 19 65  1  0
 19 66  1  0
 20 67  1  0
 20 68  1  0
 21 69  1  0
 21 70  1  0
 22 71  1  0
 22 72  1  0
 24 73  1  0
 24 74  1  0
 25 75  1  0
 25 76  1  0
 26 77  1  0
 26 78  1  0
 27 79  1  0
 27 80  1  0
 29 81  1  0
 30 82  1  0
 31 83  1  0
 33 84  1  0
 35 85  1  0
 35 86  1  0
 41 87  1  0
 41 88  1  0
 44 89  1  0
 44 90  1  0
 45 91  1  0
M  END
>  <Ligand ID>  (1) 
LIG0003351

>  <Ligand>  (1) 
SCHEMBL5182973

>  <SMILES>  (1) 
CC(=O)O.OCc1cc(ccc1O)[C@H](CNCCCCCCOCCCCc1cccc(c1)N1CC(=O)N(C1=O)CC(=O)N)O

>  <CID>  (1) 
56672115.0

>  <ChEMBL ID>  (1) 
nan

>  <InChiKey>  (1) 
XDGCBYWWQLLSJP-YCBFMBTMSA-N

>  <InChi>  (1) 
InChI=1S/C30H42N4O7.C2H4O2/c31-28(38)19-34-29(39)20-33(30(34)40)25-10-7-9-22(16-25)8-3-6-15-41-14-5-2-1-4-13-32-18-27(37)23-11-12-26(36)24(17-23)21-35;1-2(3)4/h7,9-12,16-17,27,32,35-37H,1-6,8,13-15,18-21H2,(H2,31,38);1H3,(H,3,4)/t27-;/m0./s1

>  <IUPAC Name>  (1) 
acetic acid;2-[3-[3-[4-[6-[[(2R)-2-hydroxy-2-[4-hydroxy-3-(hydroxymethyl)phenyl]ethyl]amino]hexoxy]butyl]phenyl]-2,5-dioxoimidazolidin-1-yl]acetamide

$$$$
