
     RDKit          3D

 27 26  0  0  0  0  0  0  0  0999 V2000
    4.2334   -0.0315   -0.2948 C   0  0  0  0  0  0  0  0  0  0  0  0
    2.8760   -0.6932   -0.4772 C   0  0  0  0  0  0  0  0  0  0  0  0
    1.8427    0.2290    0.0798 C   0  0  0  0  0  0  0  0  0  0  0  0
    0.4324   -0.3386   -0.0512 C   0  0  0  0  0  0  0  0  0  0  0  0
   -0.4613    0.7099    0.5529 C   0  0  0  0  0  0  0  0  0  0  0  0
   -1.9107    0.4072    0.5995 C   0  0  0  0  0  0  0  0  0  0  0  0
   -2.4854    0.1870   -0.7558 C   0  0  0  0  0  0  0  0  0  0  0  0
   -1.9018   -0.8752   -1.3955 O   0  0  0  0  0  0  0  0  0  0  0  0
   -3.9976   -0.0380   -0.5865 C   0  0  0  0  0  0  0  0  0  0  0  0
    4.5602    0.4408   -1.2516 H   0  0  0  0  0  0  0  0  0  0  0  0
    4.1884    0.8043    0.4386 H   0  0  0  0  0  0  0  0  0  0  0  0
    5.0006   -0.7403    0.0848 H   0  0  0  0  0  0  0  0  0  0  0  0
    2.9357   -1.6609    0.0528 H   0  0  0  0  0  0  0  0  0  0  0  0
    2.7434   -0.8913   -1.5662 H   0  0  0  0  0  0  0  0  0  0  0  0
    2.0210    0.3361    1.1558 H   0  0  0  0  0  0  0  0  0  0  0  0
    1.8805    1.1861   -0.4383 H   0  0  0  0  0  0  0  0  0  0  0  0
    0.2396   -0.3349   -1.1661 H   0  0  0  0  0  0  0  0  0  0  0  0
    0.3005   -1.3150    0.4006 H   0  0  0  0  0  0  0  0  0  0  0  0
   -0.1465    0.9032    1.6270 H   0  0  0  0  0  0  0  0  0  0  0  0
   -0.3177    1.7046    0.0690 H   0  0  0  0  0  0  0  0  0  0  0  0
   -2.0877   -0.4676    1.2792 H   0  0  0  0  0  0  0  0  0  0  0  0
   -2.4252    1.2838    1.1024 H   0  0  0  0  0  0  0  0  0  0  0  0
   -2.3699    1.0993   -1.4082 H   0  0  0  0  0  0  0  0  0  0  0  0
   -2.1230   -1.7352   -0.9478 H   0  0  0  0  0  0  0  0  0  0  0  0
   -4.1931   -0.4542    0.4386 H   0  0  0  0  0  0  0  0  0  0  0  0
   -4.3408   -0.6808   -1.4013 H   0  0  0  0  0  0  0  0  0  0  0  0
   -4.4938    0.9653   -0.6220 H   0  0  0  0  0  0  0  0  0  0  0  0
  1  2  1  0
  2  3  1  0
  3  4  1  0
  4  5  1  0
  5  6  1  0
  6  7  1  0
  7  8  1  0
  7  9  1  0
  1 10  1  0
  1 11  1  0
  1 12  1  0
  2 13  1  0
  2 14  1  0
  3 15  1  0
  3 16  1  0
  4 17  1  0
  4 18  1  0
  5 19  1  0
  5 20  1  0
  6 21  1  0
  6 22  1  0
  7 23  1  0
  8 24  1  0
  9 25  1  0
  9 26  1  0
  9 27  1  0
M  END
>  <Ligand ID>  (1) 
LIG0001049

>  <Ligand>  (1) 
octan-2-ol

>  <SMILES>  (1) 
CCCCCCC(O)C

>  <CID>  (1) 
20083.0

>  <ChEMBL ID>  (1) 
nan

>  <InChiKey>  (1) 
SJWFXCIHNDVPSH-UHFFFAOYSA-N

>  <InChi>  (1) 
InChI=1S/C8H18O/c1-3-4-5-6-7-8(2)9/h8-9H,3-7H2,1-2H3

>  <IUPAC Name>  (1) 
octan-2-ol

$$$$
