
     RDKit          3D

 38 40  0  0  0  0  0  0  0  0999 V2000
   -5.0021    0.3657    0.3606 O   0  0  0  0  0  0  0  0  0  0  0  0
   -3.7468    0.2936    0.3344 C   0  0  0  0  0  0  0  0  0  0  0  0
   -2.8790    1.4774    0.6899 C   0  0  0  0  0  0  0  0  0  0  0  0
   -1.8658    1.5262   -0.4323 C   0  0  0  0  0  0  0  0  0  0  0  0
   -0.9128    0.3569   -0.3241 C   0  0  1  0  0  0  0  0  0  0  0  0
   -1.7513   -0.8696   -0.3268 C   0  0  0  0  0  0  0  0  0  0  0  0
   -3.0203   -0.9181   -0.0352 C   0  0  0  0  0  0  0  0  0  0  0  0
   -0.0164    0.2716   -1.5381 C   0  0  0  0  0  0  0  0  0  0  0  0
    1.4098    0.5908   -1.3045 C   0  0  1  0  0  0  0  0  0  0  0  0
    1.7014    1.6347   -0.2691 C   0  0  0  0  0  0  0  0  0  0  0  0
    1.3900    0.5026    0.7238 C   0  0  1  0  0  0  0  0  0  0  0  0
   -0.0739    0.3883    0.9208 C   0  0  2  0  0  0  0  0  0  0  0  0
   -0.3769   -0.7211    1.8795 C   0  0  0  0  0  0  0  0  0  0  0  0
    2.0336   -0.3533   -0.2951 C   0  0  0  0  0  0  0  0  0  0  0  0
    1.7518   -1.7731   -0.4088 C   0  0  0  0  0  0  0  0  0  0  0  0
    3.5401   -0.0803   -0.2868 C   0  0  0  0  0  0  0  0  0  0  0  0
   -2.3874    1.1859    1.6325 H   0  0  0  0  0  0  0  0  0  0  0  0
   -3.4720    2.3945    0.7644 H   0  0  0  0  0  0  0  0  0  0  0  0
   -2.3881    1.4066   -1.4112 H   0  0  0  0  0  0  0  0  0  0  0  0
   -1.3712    2.5053   -0.3405 H   0  0  0  0  0  0  0  0  0  0  0  0
   -1.2758   -1.8274   -0.5962 H   0  0  0  0  0  0  0  0  0  0  0  0
   -3.5961   -1.8400   -0.0501 H   0  0  0  0  0  0  0  0  0  0  0  0
   -0.4365    0.9578   -2.2999 H   0  0  0  0  0  0  0  0  0  0  0  0
   -0.0553   -0.7331   -2.0069 H   0  0  0  0  0  0  0  0  0  0  0  0
    1.9682    0.7290   -2.2311 H   0  0  0  0  0  0  0  0  0  0  0  0
    1.0643    2.5174   -0.2100 H   0  0  0  0  0  0  0  0  0  0  0  0
    2.7533    1.9321   -0.2991 H   0  0  0  0  0  0  0  0  0  0  0  0
    1.9026    0.6110    1.6872 H   0  0  0  0  0  0  0  0  0  0  0  0
   -0.3763    1.3366    1.4623 H   0  0  0  0  0  0  0  0  0  0  0  0
    0.5379   -1.1673    2.3326 H   0  0  0  0  0  0  0  0  0  0  0  0
   -0.9899   -1.5429    1.4555 H   0  0  0  0  0  0  0  0  0  0  0  0
   -0.9721   -0.3883    2.7810 H   0  0  0  0  0  0  0  0  0  0  0  0
    0.9499   -2.2015    0.2075 H   0  0  0  0  0  0  0  0  0  0  0  0
    1.4656   -1.9855   -1.4808 H   0  0  0  0  0  0  0  0  0  0  0  0
    2.6500   -2.3714   -0.2362 H   0  0  0  0  0  0  0  0  0  0  0  0
    3.8651    0.4844    0.6081 H   0  0  0  0  0  0  0  0  0  0  0  0
    3.8697    0.3551   -1.2441 H   0  0  0  0  0  0  0  0  0  0  0  0
    4.1126   -1.0514   -0.2131 H   0  0  0  0  0  0  0  0  0  0  0  0
  1  2  2  0
  2  3  1  0
  3  4  1  0
  5  4  1  6
  5  6  1  0
  6  7  2  0
  5  8  1  0
  8  9  1  0
  9 10  1  0
 10 11  1  0
 11 12  1  0
 12 13  1  0
 11 14  1  0
 14 15  1  0
 14 16  1  0
  7  2  1  0
 14  9  1  0
 12  5  1  0
  3 17  1  0
  3 18  1  0
  4 19  1  0
  4 20  1  0
  6 21  1  0
  7 22  1  0
  8 23  1  0
  8 24  1  0
  9 25  1  6
 10 26  1  0
 10 27  1  0
 11 28  1  1
 12 29  1  1
 13 30  1  0
 13 31  1  0
 13 32  1  0
 15 33  1  0
 15 34  1  0
 15 35  1  0
 16 36  1  0
 16 37  1  0
 16 38  1  0
M  END
>  <Ligand ID>  (1) 
LIG0000238

>  <Ligand>  (1) 
Spiro(bicyclo(3.1.1)heptane-3,1'-(2)cyclohexen)-4'-one, 2,6,6-trimethyl-, (1S,1'S,2S,5R)-

>  <SMILES>  (1) 
O=C1CC[C@@]2(C=C1)C[C@H]1C[C@@H]([C@@H]2C)C1(C)C

>  <CID>  (1) 
117859414.0

>  <ChEMBL ID>  (1) 
nan

>  <InChiKey>  (1) 
YBDPZJGWLRHCHO-WJNVRWDZSA-N

>  <InChi>  (1) 
InChI=1S/C15H22O/c1-10-13-8-11(14(13,2)3)9-15(10)6-4-12(16)5-7-15/h4,6,10-11,13H,5,7-9H2,1-3H3/t10-,11+,13-,15-/m0/s1

>  <IUPAC Name>  (1) 
(1S,2S,3S,5R)-2,6,6-trimethylspiro[bicyclo[3.1.1]heptane-3,4'-cyclohex-2-ene]-1'-one

$$$$
