
     RDKit          3D

 43 46  0  0  0  0  0  0  0  0999 V2000
    6.6538    2.4281   -0.4138 C   0  0  0  0  0  0  0  0  0  0  0  0
    5.5425    2.3543    0.4887 O   0  0  0  0  0  0  0  0  0  0  0  0
    4.5891    1.3602    0.3176 C   0  0  0  0  0  0  0  0  0  0  0  0
    4.6990    0.4581   -0.6954 C   0  0  0  0  0  0  0  0  0  0  0  0
    3.7429   -0.5089   -0.8367 C   0  0  0  0  0  0  0  0  0  0  0  0
    2.6620   -0.5740    0.0478 C   0  0  0  0  0  0  0  0  0  0  0  0
    2.5813    0.3530    1.0606 C   0  0  0  0  0  0  0  0  0  0  0  0
    3.5442    1.3312    1.2073 C   0  0  0  0  0  0  0  0  0  0  0  0
    1.6855   -1.6330   -0.1624 C   0  0  0  0  0  0  0  0  0  0  0  0
    2.1026   -2.9053   -0.4011 N   0  0  0  0  0  0  0  0  0  0  0  0
    1.2856   -3.9089   -0.6012 N   0  0  0  0  0  0  0  0  0  0  0  0
   -0.0282   -3.7265   -0.5799 C   0  0  0  0  0  0  0  0  0  0  0  0
   -0.5608   -2.4745   -0.3463 C   0  0  0  0  0  0  0  0  0  0  0  0
    0.3253   -1.4378   -0.1393 C   0  0  0  0  0  0  0  0  0  0  0  0
   -0.4308   -0.3018    0.0679 C   0  0  0  0  0  0  0  0  0  0  0  0
   -1.7332   -0.6429   -0.0115 N   0  0  0  0  0  0  0  0  0  0  0  0
   -1.8024   -1.9546   -0.2615 N   0  0  0  0  0  0  0  0  0  0  0  0
   -2.8774    0.1937    0.1345 C   0  0  0  0  0  0  0  0  0  0  0  0
   -3.6753    0.1765    1.2601 C   0  0  0  0  0  0  0  0  0  0  0  0
   -4.7575    1.0246    1.3013 C   0  0  0  0  0  0  0  0  0  0  0  0
   -5.0481    1.8778    0.2460 C   0  0  0  0  0  0  0  0  0  0  0  0
   -4.2526    1.9054   -0.8941 C   0  0  0  0  0  0  0  0  0  0  0  0
   -3.1504    1.0448   -0.9414 C   0  0  0  0  0  0  0  0  0  0  0  0
   -6.2220    2.8001    0.2866 C   0  0  0  0  0  0  0  0  0  0  0  0
   -0.9972   -4.8437   -0.8031 C   0  0  0  0  0  0  0  0  0  0  0  0
    6.2965    2.7349   -1.4192 H   0  0  0  0  0  0  0  0  0  0  0  0
    7.1619    1.4627   -0.5436 H   0  0  0  0  0  0  0  0  0  0  0  0
    7.3466    3.2151   -0.0799 H   0  0  0  0  0  0  0  0  0  0  0  0
    5.5125    0.4650   -1.4038 H   0  0  0  0  0  0  0  0  0  0  0  0
    3.8008   -1.2531   -1.6437 H   0  0  0  0  0  0  0  0  0  0  0  0
    1.7563    0.3178    1.7549 H   0  0  0  0  0  0  0  0  0  0  0  0
    3.4266    2.0299    2.0204 H   0  0  0  0  0  0  0  0  0  0  0  0
   -0.0643    0.6942    0.2597 H   0  0  0  0  0  0  0  0  0  0  0  0
   -3.4344   -0.4921    2.0689 H   0  0  0  0  0  0  0  0  0  0  0  0
   -5.4167    1.0500    2.1637 H   0  0  0  0  0  0  0  0  0  0  0  0
   -4.4503    2.5557   -1.7311 H   0  0  0  0  0  0  0  0  0  0  0  0
   -2.5032    1.0444   -1.8300 H   0  0  0  0  0  0  0  0  0  0  0  0
   -6.7742    2.7963   -0.6736 H   0  0  0  0  0  0  0  0  0  0  0  0
   -6.8851    2.4688    1.0876 H   0  0  0  0  0  0  0  0  0  0  0  0
   -5.8236    3.8073    0.5396 H   0  0  0  0  0  0  0  0  0  0  0  0
   -0.5542   -5.6841   -1.3719 H   0  0  0  0  0  0  0  0  0  0  0  0
   -1.8714   -4.4927   -1.4025 H   0  0  0  0  0  0  0  0  0  0  0  0
   -1.4019   -5.1161    0.1816 H   0  0  0  0  0  0  0  0  0  0  0  0
  1  2  1  0
  2  3  1  0
  3  4  2  0
  4  5  1  0
  5  6  2  0
  6  7  1  0
  7  8  2  0
  6  9  1  0
  9 10  2  0
 10 11  1  0
 11 12  2  0
 12 13  1  0
 13 14  1  0
 14 15  2  0
 15 16  1  0
 16 17  1  0
 16 18  1  0
 18 19  2  0
 19 20  1  0
 20 21  2  0
 21 22  1  0
 22 23  2  0
 21 24  1  0
 12 25  1  0
  8  3  1  0
 14  9  1  0
 23 18  1  0
 17 13  2  0
  1 26  1  0
  1 27  1  0
  1 28  1  0
  4 29  1  0
  5 30  1  0
  7 31  1  0
  8 32  1  0
 15 33  1  0
 19 34  1  0
 20 35  1  0
 22 36  1  0
 23 37  1  0
 24 38  1  0
 24 39  1  0
 24 40  1  0
 25 41  1  0
 25 42  1  0
 25 43  1  0
M  END
>  <Ligand ID>  (1) 
LIG0003828

>  <Ligand>  (1) 
MLS-0437176.0001

>  <SMILES>  (1) 
COc1ccc(cc1)c1nnc(c2c1cn(n2)c1ccc(cc1)C)C

>  <CID>  (1) 
42600928.0

>  <ChEMBL ID>  (1) 
nan

>  <InChiKey>  (1) 
AYBHAKOBTPNMON-UHFFFAOYSA-N

>  <InChi>  (1) 
InChI=1S/C20H18N4O/c1-13-4-8-16(9-5-13)24-12-18-19(23-24)14(2)21-22-20(18)15-6-10-17(25-3)11-7-15/h4-12H,1-3H3

>  <IUPAC Name>  (1) 
4-(4-methoxyphenyl)-7-methyl-2-(4-methylphenyl)pyrazolo[3,4-d]pyridazine

$$$$
