
     RDKit          3D

 34 36  0  0  0  0  0  0  0  0999 V2000
    6.6760   -2.1233    0.3273 Cl  0  0  0  0  0  0  0  0  0  0  0  0
    5.2138   -1.1694    0.0836 C   0  0  0  0  0  0  0  0  0  0  0  0
    4.0065   -1.8422   -0.0369 C   0  0  0  0  0  0  0  0  0  0  0  0
    2.8845   -1.0646   -0.2276 C   0  0  0  0  0  0  0  0  0  0  0  0
    2.9320    0.3094   -0.2981 C   0  0  0  0  0  0  0  0  0  0  0  0
    4.1485    0.9838   -0.1761 C   0  0  0  0  0  0  0  0  0  0  0  0
    5.2976    0.2121    0.0174 C   0  0  0  0  0  0  0  0  0  0  0  0
    4.2391    2.3051   -0.2313 N   0  0  0  0  0  0  0  0  0  0  0  0
    3.1121    3.0355   -0.4119 C   0  0  0  0  0  0  0  0  0  0  0  0
    1.8611    2.4308   -0.5418 C   0  0  0  0  0  0  0  0  0  0  0  0
    1.7885    1.0662   -0.4828 C   0  0  0  0  0  0  0  0  0  0  0  0
    0.5462    0.3355   -0.6299 N   0  0  0  0  0  0  0  0  0  0  0  0
    0.0523   -0.3181    0.4199 N   0  0  0  0  0  0  0  0  0  0  0  0
   -0.9918   -0.6768    0.9415 C   0  0  0  0  0  0  0  0  0  0  0  0
   -2.3820   -0.4988    0.5531 C   0  0  0  0  0  0  0  0  0  0  0  0
   -2.8045    0.2022   -0.5462 C   0  0  0  0  0  0  0  0  0  0  0  0
   -4.1456    0.3259   -0.9005 C   0  0  0  0  0  0  0  0  0  0  0  0
   -5.1294   -0.2676   -0.1390 C   0  0  0  0  0  0  0  0  0  0  0  0
   -4.7333   -0.9777    0.9707 C   0  0  0  0  0  0  0  0  0  0  0  0
   -3.4062   -1.0922    1.3099 C   0  0  0  0  0  0  0  0  0  0  0  0
   -5.7302   -1.5788    1.7393 O   0  0  0  0  0  0  0  0  0  0  0  0
   -6.4522   -0.1203   -0.5258 O   0  0  0  0  0  0  0  0  0  0  0  0
    3.9482   -2.9126    0.0152 H   0  0  0  0  0  0  0  0  0  0  0  0
    1.9374   -1.5972   -0.3230 H   0  0  0  0  0  0  0  0  0  0  0  0
    6.2594    0.7042    0.1163 H   0  0  0  0  0  0  0  0  0  0  0  0
    3.2459    4.1051   -0.4486 H   0  0  0  0  0  0  0  0  0  0  0  0
    0.9698    3.0220   -0.6852 H   0  0  0  0  0  0  0  0  0  0  0  0
    0.1576    0.4062   -1.6211 H   0  0  0  0  0  0  0  0  0  0  0  0
   -0.8806   -1.2489    1.9078 H   0  0  0  0  0  0  0  0  0  0  0  0
   -2.0984    0.6983   -1.1850 H   0  0  0  0  0  0  0  0  0  0  0  0
   -4.4395    0.8968   -1.7869 H   0  0  0  0  0  0  0  0  0  0  0  0
   -3.1858   -1.6715    2.2020 H   0  0  0  0  0  0  0  0  0  0  0  0
   -5.9296   -2.5522    1.7164 H   0  0  0  0  0  0  0  0  0  0  0  0
   -6.9675    0.6731   -0.1647 H   0  0  0  0  0  0  0  0  0  0  0  0
  1  2  1  0
  2  3  2  0
  3  4  1  0
  4  5  2  0
  5  6  1  0
  6  7  2  0
  6  8  1  0
  8  9  2  0
  9 10  1  0
 10 11  2  0
 11 12  1  0
 12 13  1  0
 13 14  2  3
 14 15  1  0
 15 16  2  0
 16 17  1  0
 17 18  2  0
 18 19  1  0
 19 20  2  0
 19 21  1  0
 18 22  1  0
  7  2  1  0
 20 15  1  0
 11  5  1  0
  3 23  1  0
  4 24  1  0
  7 25  1  0
  9 26  1  0
 10 27  1  0
 12 28  1  0
 14 29  1  0
 16 30  1  0
 17 31  1  0
 20 32  1  0
 21 33  1  0
 22 34  1  0
M  END
>  <Ligand ID>  (1) 
LIG0002480

>  <Ligand>  (1) 
MLS000760794

>  <SMILES>  (1) 
Clc1ccc2c(c1)nccc2NN=Cc1ccc(c(c1)O)O

>  <CID>  (1) 
4287975.0

>  <ChEMBL ID>  (1) 
nan

>  <InChiKey>  (1) 
RKPVWVMSFURBEQ-UHFFFAOYSA-N

>  <InChi>  (1) 
InChI=1S/C16H12ClN3O2/c17-11-2-3-12-13(5-6-18-14(12)8-11)20-19-9-10-1-4-15(21)16(22)7-10/h1-9,21-22H,(H,18,20)

>  <IUPAC Name>  (1) 
4-[[(7-chloroquinolin-4-yl)hydrazinylidene]methyl]benzene-1,2-diol

$$$$
