
     RDKit          3D

 26 26  0  0  0  0  0  0  0  0999 V2000
    3.8343    1.8664    0.1690 O   0  0  0  0  0  0  0  0  0  0  0  0
    3.0151    0.8076   -0.2012 C   0  0  0  0  0  0  0  0  0  0  0  0
    3.4810   -0.2442   -0.7133 O   0  0  0  0  0  0  0  0  0  0  0  0
    1.5122    0.9489    0.0301 C   0  0  0  0  0  0  0  0  0  0  0  0
    0.7970   -0.2682   -0.4208 C   0  0  2  0  0  0  0  0  0  0  0  0
   -0.6583   -0.3757   -0.2730 C   0  0  1  0  0  0  0  0  0  0  0  0
    0.2633   -1.3293    0.4190 C   0  0  1  0  0  0  0  0  0  0  0  0
    0.2857   -2.7326   -0.0634 C   0  0  0  0  0  0  0  0  0  0  0  0
    0.3773   -3.6815    0.7755 O   0  0  0  0  0  0  0  0  0  0  0  0
    0.2055   -2.9984   -1.4403 O   0  0  0  0  0  0  0  0  0  0  0  0
   -1.6084    0.3779    0.5645 C   0  0  1  0  0  0  0  0  0  0  0  0
   -1.6951    1.8245    0.3294 C   0  0  0  0  0  0  0  0  0  0  0  0
   -0.8559    2.6833    0.6681 O   0  0  0  0  0  0  0  0  0  0  0  0
   -2.8218    2.3144   -0.3401 O   0  0  0  0  0  0  0  0  0  0  0  0
   -2.9806   -0.1727    0.3974 N   0  0  0  0  0  0  0  0  0  0  0  0
    4.8116    1.9018   -0.1274 H   0  0  0  0  0  0  0  0  0  0  0  0
    1.4048    1.2356    1.0746 H   0  0  0  0  0  0  0  0  0  0  0  0
    1.1696    1.7781   -0.6689 H   0  0  0  0  0  0  0  0  0  0  0  0
    1.2677   -0.6558   -1.3998 H   0  0  0  0  0  0  0  0  0  0  0  0
   -1.1686   -0.8163   -1.1975 H   0  0  0  0  0  0  0  0  0  0  0  0
    0.3329   -1.2527    1.5246 H   0  0  0  0  0  0  0  0  0  0  0  0
   -0.1011   -3.9026   -1.7625 H   0  0  0  0  0  0  0  0  0  0  0  0
   -1.4227    0.2525    1.6550 H   0  0  0  0  0  0  0  0  0  0  0  0
   -2.8678    3.2721   -0.6431 H   0  0  0  0  0  0  0  0  0  0  0  0
   -3.6475    0.3421    0.9836 H   0  0  0  0  0  0  0  0  0  0  0  0
   -2.9301   -1.1753    0.6604 H   0  0  0  0  0  0  0  0  0  0  0  0
  1  2  1  0
  2  3  2  0
  2  4  1  0
  4  5  1  0
  5  6  1  0
  6  7  1  0
  7  8  1  0
  8  9  2  0
  8 10  1  0
  6 11  1  0
 11 12  1  0
 12 13  2  0
 12 14  1  0
 11 15  1  0
  7  5  1  0
  1 16  1  0
  4 17  1  0
  4 18  1  0
  5 19  1  6
  6 20  1  6
  7 21  1  1
 10 22  1  0
 11 23  1  1
 14 24  1  0
 15 25  1  0
 15 26  1  0
M  END
>  <Ligand ID>  (1) 
LIG0001080

>  <Ligand>  (1) 
CHEMBL343994

>  <SMILES>  (1) 
OC(=O)C[C@@H]1[C@@H]([C@H]1C(=O)O)[C@@H](C(=O)O)N

>  <CID>  (1) 
44361501.0

>  <ChEMBL ID>  (1) 
nan

>  <InChiKey>  (1) 
PQFJICGWSAKMIG-JSTMLOLSSA-N

>  <InChi>  (1) 
InChI=1S/C8H11NO6/c9-6(8(14)15)4-2(1-3(10)11)5(4)7(12)13/h2,4-6H,1,9H2,(H,10,11)(H,12,13)(H,14,15)/t2-,4+,5+,6+/m1/s1

>  <IUPAC Name>  (1) 
(1S,2S,3R)-2-[(S)-amino(carboxy)methyl]-3-(carboxymethyl)cyclopropane-1-carboxylic acid

$$$$
