
     RDKit          3D

 54 57  0  0  0  0  0  0  0  0999 V2000
   -3.5550    1.1666   -0.4451 C   0  0  0  0  0  0  0  0  0  0  0  0
   -2.3115    1.5149   -1.2344 C   0  0  0  0  0  0  0  0  0  0  0  0
   -2.6689    2.8654   -1.9110 C   0  0  0  0  0  0  0  0  0  0  0  0
   -2.4388    4.0452   -1.0708 C   0  0  0  0  0  0  0  0  0  0  0  0
   -2.1361    3.8694    0.3647 C   0  0  0  0  0  0  0  0  0  0  0  0
   -1.4733    2.5814    0.7363 C   0  0  0  0  0  0  0  0  0  0  0  0
   -1.0960    1.7504   -0.4826 C   0  0  0  0  0  0  0  0  0  0  0  0
   -0.1555    0.7891   -0.0958 N   0  0  0  0  0  0  0  0  0  0  0  0
    1.2165    1.0828   -0.5981 C   0  0  0  0  0  0  0  0  0  0  0  0
    1.3953    2.1240   -1.2806 O   0  0  0  0  0  0  0  0  0  0  0  0
    2.3350    0.2256   -0.3322 C   0  0  0  0  0  0  0  0  0  0  0  0
    3.3531    0.4473    0.5041 N   0  0  0  0  0  0  0  0  0  0  0  0
    4.2199   -0.5151    0.5168 O   0  0  0  0  0  0  0  0  0  0  0  0
    3.7759   -1.4192   -0.3377 C   0  0  0  0  0  0  0  0  0  0  0  0
    2.6008   -1.0296   -0.9116 C   0  0  0  0  0  0  0  0  0  0  0  0
    4.5226   -2.6934   -0.5991 C   0  0  0  0  0  0  0  0  0  0  0  0
    5.6568   -3.1125    0.2329 C   0  0  0  0  0  0  0  0  0  0  0  0
    5.9789   -2.4009   -1.0371 C   0  0  0  0  0  0  0  0  0  0  0  0
   -0.2572   -0.3862    0.6583 C   0  0  0  0  0  0  0  0  0  0  0  0
   -0.7786   -0.5392    1.9938 C   0  0  0  0  0  0  0  0  0  0  0  0
   -1.8493   -1.6025    2.1423 C   0  0  0  0  0  0  0  0  0  0  0  0
   -1.4100   -2.9452    1.6122 C   0  0  0  0  0  0  0  0  0  0  0  0
   -0.6374   -2.8259    0.3227 C   0  0  0  0  0  0  0  0  0  0  0  0
   -0.9414   -1.4443   -0.2346 C   0  0  0  0  0  0  0  0  0  0  0  0
   -3.3803    0.6078    0.4671 H   0  0  0  0  0  0  0  0  0  0  0  0
   -4.2946    0.5946   -1.0773 H   0  0  0  0  0  0  0  0  0  0  0  0
   -4.1165    2.1017   -0.1449 H   0  0  0  0  0  0  0  0  0  0  0  0
   -2.2745    0.8519   -2.1071 H   0  0  0  0  0  0  0  0  0  0  0  0
   -2.0626    2.9411   -2.8639 H   0  0  0  0  0  0  0  0  0  0  0  0
   -3.7078    2.7341   -2.2704 H   0  0  0  0  0  0  0  0  0  0  0  0
   -3.3461    4.7012   -1.1354 H   0  0  0  0  0  0  0  0  0  0  0  0
   -1.6357    4.6960   -1.5318 H   0  0  0  0  0  0  0  0  0  0  0  0
   -3.0464    3.9934    0.9897 H   0  0  0  0  0  0  0  0  0  0  0  0
   -1.4525    4.6861    0.6946 H   0  0  0  0  0  0  0  0  0  0  0  0
   -0.5494    2.7248    1.3244 H   0  0  0  0  0  0  0  0  0  0  0  0
   -2.1637    1.9741    1.3469 H   0  0  0  0  0  0  0  0  0  0  0  0
   -0.4734    2.5092   -1.1077 H   0  0  0  0  0  0  0  0  0  0  0  0
    1.9900   -1.5303   -1.6345 H   0  0  0  0  0  0  0  0  0  0  0  0
    3.9673   -3.3999   -1.2597 H   0  0  0  0  0  0  0  0  0  0  0  0
    5.8531   -4.2061    0.3059 H   0  0  0  0  0  0  0  0  0  0  0  0
    5.8397   -2.5697    1.1657 H   0  0  0  0  0  0  0  0  0  0  0  0
    6.3211   -3.0000   -1.9229 H   0  0  0  0  0  0  0  0  0  0  0  0
    6.3390   -1.3729   -1.0320 H   0  0  0  0  0  0  0  0  0  0  0  0
    0.8139   -0.7991    0.6756 H   0  0  0  0  0  0  0  0  0  0  0  0
   -1.0174    0.3699    2.5886 H   0  0  0  0  0  0  0  0  0  0  0  0
    0.0439   -0.9849    2.6628 H   0  0  0  0  0  0  0  0  0  0  0  0
   -2.8380   -1.2947    1.7150 H   0  0  0  0  0  0  0  0  0  0  0  0
   -1.9576   -1.7541    3.2628 H   0  0  0  0  0  0  0  0  0  0  0  0
   -2.2971   -3.5981    1.3826 H   0  0  0  0  0  0  0  0  0  0  0  0
   -0.7557   -3.4663    2.3476 H   0  0  0  0  0  0  0  0  0  0  0  0
   -0.9493   -3.5523   -0.4566 H   0  0  0  0  0  0  0  0  0  0  0  0
    0.4486   -2.9079    0.5180 H   0  0  0  0  0  0  0  0  0  0  0  0
   -2.0246   -1.2603   -0.1377 H   0  0  0  0  0  0  0  0  0  0  0  0
   -0.6192   -1.3376   -1.2791 H   0  0  0  0  0  0  0  0  0  0  0  0
  1  2  1  0
  2  3  1  0
  3  4  1  0
  4  5  1  0
  5  6  1  0
  6  7  1  0
  7  8  1  0
  8  9  1  0
  9 10  2  0
  9 11  1  0
 11 12  2  0
 12 13  1  0
 13 14  1  0
 14 15  2  0
 14 16  1  0
 16 17  1  0
 17 18  1  0
  8 19  1  0
 19 20  1  0
 20 21  1  0
 21 22  1  0
 22 23  1  0
 23 24  1  0
  7  2  1  0
 15 11  1  0
 18 16  1  0
 24 19  1  0
  1 25  1  0
  1 26  1  0
  1 27  1  0
  2 28  1  0
  3 29  1  0
  3 30  1  0
  4 31  1  0
  4 32  1  0
  5 33  1  0
  5 34  1  0
  6 35  1  0
  6 36  1  0
  7 37  1  0
 15 38  1  0
 16 39  1  0
 17 40  1  0
 17 41  1  0
 18 42  1  0
 18 43  1  0
 19 44  1  0
 20 45  1  0
 20 46  1  0
 21 47  1  0
 21 48  1  0
 22 49  1  0
 22 50  1  0
 23 51  1  0
 23 52  1  0
 24 53  1  0
 24 54  1  0
M  END
>  <Ligand ID>  (1) 
LIG0001743

>  <Ligand>  (1) 
MLS003675930

>  <SMILES>  (1) 
CC1CCCCC1N(C(=O)c1noc(c1)C1CC1)C1CCCCC1

>  <CID>  (1) 
25110498.0

>  <ChEMBL ID>  (1) 
nan

>  <InChiKey>  (1) 
YSOYNKDERAPHBG-UHFFFAOYSA-N

>  <InChi>  (1) 
InChI=1S/C20H30N2O2/c1-14-7-5-6-10-18(14)22(16-8-3-2-4-9-16)20(23)17-13-19(24-21-17)15-11-12-15/h13-16,18H,2-12H2,1H3

>  <IUPAC Name>  (1) 
N-cyclohexyl-5-cyclopropyl-N-(2-methylcyclohexyl)-1,2-oxazole-3-carboxamide

$$$$
