
     RDKit          3D

 59 61  0  0  0  0  0  0  0  0999 V2000
   -8.3425    0.5732   -3.5436 O   0  0  0  0  0  0  0  0  0  0  0  0
   -7.9779    0.3574   -2.3604 C   0  0  0  0  0  0  0  0  0  0  0  0
   -6.2466    0.4438   -1.7894 S   0  0  0  0  0  0  0  0  0  0  0  0
   -6.6801    0.0186   -0.0982 C   0  0  0  0  0  0  0  0  0  0  0  0
   -8.0373   -0.1418   -0.1326 C   0  0  0  0  0  0  0  0  0  0  0  0
   -8.6716    0.0279   -1.2571 N   0  0  0  0  0  0  0  0  0  0  0  0
   -8.6125   -0.4978    1.1182 C   0  0  0  0  0  0  0  0  0  0  0  0
   -9.9653   -0.6970    1.2709 O   0  0  0  0  0  0  0  0  0  0  0  0
   -7.8196   -0.6560    2.2266 C   0  0  0  0  0  0  0  0  0  0  0  0
   -6.4547   -0.4921    2.2379 C   0  0  0  0  0  0  0  0  0  0  0  0
   -5.8795   -0.1376    1.0162 C   0  0  0  0  0  0  0  0  0  0  0  0
   -4.4418    0.1520    0.9536 C   0  0  2  0  0  0  0  0  0  0  0  0
   -3.7399   -0.8562    0.0743 C   0  0  0  0  0  0  0  0  0  0  0  0
   -2.3913   -0.4875   -0.1919 N   0  0  0  0  0  0  0  0  0  0  0  0
   -1.4346   -0.5628    0.8301 C   0  0  0  0  0  0  0  0  0  0  0  0
   -0.1993    0.2013    0.4335 C   0  0  0  0  0  0  0  0  0  0  0  0
    0.5236   -0.4635   -1.0836 S   0  0  0  0  0  0  0  0  0  0  0  0
    1.9961    0.5492   -1.4739 C   0  0  0  0  0  0  0  0  0  0  0  0
    3.0838    0.2829   -0.4186 C   0  0  0  0  0  0  0  0  0  0  0  0
    4.2677    1.2201   -0.7139 C   0  0  0  0  0  0  0  0  0  0  0  0
    4.7548    0.9983   -2.0012 N   0  0  0  0  0  0  0  0  0  0  0  0
    5.4353   -0.1466   -2.3941 C   0  0  0  0  0  0  0  0  0  0  0  0
    6.8262   -0.3847   -1.9332 C   0  0  0  0  0  0  0  0  0  0  0  0
    7.0755   -0.5280   -0.5020 C   0  0  0  0  0  0  0  0  0  0  0  0
    7.6147    0.4403    0.3144 C   0  0  0  0  0  0  0  0  0  0  0  0
    7.8539    0.2687    1.6569 C   0  0  0  0  0  0  0  0  0  0  0  0
    7.5345   -0.9501    2.2342 C   0  0  0  0  0  0  0  0  0  0  0  0
    6.9847   -1.9728    1.4609 C   0  0  0  0  0  0  0  0  0  0  0  0
    6.7646   -1.7482    0.1135 C   0  0  0  0  0  0  0  0  0  0  0  0
    6.0813   -3.0688   -0.8216 Cl  0  0  0  0  0  0  0  0  0  0  0  0
    6.6044   -3.5139    2.2178 Cl  0  0  0  0  0  0  0  0  0  0  0  0
   -3.8946    0.3032    2.2096 O   0  0  0  0  0  0  0  0  0  0  0  0
   -9.7480   -0.0722   -1.3727 H   0  0  0  0  0  0  0  0  0  0  0  0
  -10.5678   -0.1222    1.8395 H   0  0  0  0  0  0  0  0  0  0  0  0
   -8.2812   -0.9283    3.1656 H   0  0  0  0  0  0  0  0  0  0  0  0
   -5.8373   -0.6155    3.0891 H   0  0  0  0  0  0  0  0  0  0  0  0
   -4.3329    1.1792    0.4668 H   0  0  0  0  0  0  0  0  0  0  0  0
   -3.7425   -1.8729    0.4895 H   0  0  0  0  0  0  0  0  0  0  0  0
   -4.3032   -0.9135   -0.8759 H   0  0  0  0  0  0  0  0  0  0  0  0
   -2.1842   -0.0236   -1.0682 H   0  0  0  0  0  0  0  0  0  0  0  0
   -1.7536   -0.3405    1.8610 H   0  0  0  0  0  0  0  0  0  0  0  0
   -1.0730   -1.6503    0.9053 H   0  0  0  0  0  0  0  0  0  0  0  0
   -0.4562    1.2866    0.2389 H   0  0  0  0  0  0  0  0  0  0  0  0
    0.6003    0.1425    1.2119 H   0  0  0  0  0  0  0  0  0  0  0  0
    1.7605    1.6323   -1.4024 H   0  0  0  0  0  0  0  0  0  0  0  0
    2.3799    0.3351   -2.4885 H   0  0  0  0  0  0  0  0  0  0  0  0
    2.6354    0.4772    0.5631 H   0  0  0  0  0  0  0  0  0  0  0  0
    3.3835   -0.7670   -0.5280 H   0  0  0  0  0  0  0  0  0  0  0  0
    3.8513    2.2834   -0.6574 H   0  0  0  0  0  0  0  0  0  0  0  0
    4.9767    1.0734    0.1394 H   0  0  0  0  0  0  0  0  0  0  0  0
    4.7421    1.8169   -2.6546 H   0  0  0  0  0  0  0  0  0  0  0  0
    5.4789   -0.1684   -3.5325 H   0  0  0  0  0  0  0  0  0  0  0  0
    4.8403   -1.0605   -2.0783 H   0  0  0  0  0  0  0  0  0  0  0  0
    7.5572    0.3511   -2.3767 H   0  0  0  0  0  0  0  0  0  0  0  0
    7.1519   -1.3592   -2.4162 H   0  0  0  0  0  0  0  0  0  0  0  0
    7.8595    1.3846   -0.1488 H   0  0  0  0  0  0  0  0  0  0  0  0
    8.2756    1.0301    2.2914 H   0  0  0  0  0  0  0  0  0  0  0  0
    7.7073   -1.1113    3.2973 H   0  0  0  0  0  0  0  0  0  0  0  0
   -3.5328    1.1921    2.3880 H   0  0  0  0  0  0  0  0  0  0  0  0
  1  2  2  0
  2  3  1  0
  3  4  1  0
  4  5  2  0
  5  6  1  0
  5  7  1  0
  7  8  1  0
  7  9  2  0
  9 10  1  0
 10 11  2  0
 11 12  1  0
 12 13  1  0
 13 14  1  0
 14 15  1  0
 15 16  1  0
 16 17  1  0
 17 18  1  0
 18 19  1  0
 19 20  1  0
 20 21  1  0
 21 22  1  0
 22 23  1  0
 23 24  1  0
 24 25  2  0
 25 26  1  0
 26 27  2  0
 27 28  1  0
 28 29  2  0
 29 30  1  0
 28 31  1  0
 12 32  1  0
  6  2  1  0
 29 24  1  0
 11  4  1  0
  6 33  1  0
  8 34  1  0
  9 35  1  0
 10 36  1  0
 12 37  1  6
 13 38  1  0
 13 39  1  0
 14 40  1  0
 15 41  1  0
 15 42  1  0
 16 43  1  0
 16 44  1  0
 18 45  1  0
 18 46  1  0
 19 47  1  0
 19 48  1  0
 20 49  1  0
 20 50  1  0
 21 51  1  0
 22 52  1  0
 22 53  1  0
 23 54  1  0
 23 55  1  0
 25 56  1  0
 26 57  1  0
 27 58  1  0
 32 59  1  0
M  END
>  <Ligand ID>  (1) 
LIG0005770

>  <Ligand>  (1) 
CHEMBL1807829

>  <SMILES>  (1) 
O=c1sc2c([nH]1)c(O)ccc2[C@H](CNCCSCCCNCCc1cccc(c1Cl)Cl)O

>  <CID>  (1) 
16049448.0

>  <ChEMBL ID>  (1) 
nan

>  <InChiKey>  (1) 
PEVWKBRNDRRBCW-SFHVURJKSA-N

>  <InChi>  (1) 
InChI=1S/C22H27Cl2N3O3S2/c23-16-4-1-3-14(19(16)24)7-9-25-8-2-11-31-12-10-26-13-18(29)15-5-6-17(28)20-21(15)32-22(30)27-20/h1,3-6,18,25-26,28-29H,2,7-13H2,(H,27,30)/t18-/m0/s1

>  <IUPAC Name>  (1) 
7-[(1R)-2-[2-[3-[2-(2,3-dichlorophenyl)ethylamino]propylsulfanyl]ethylamino]-1-hydroxyethyl]-4-hydroxy-3H-1,3-benzothiazol-2-one

$$$$
