
     RDKit          3D

 22 23  0  0  0  0  0  0  0  0999 V2000
   -3.6721    1.3680   -0.3253 N   0  0  0  0  0  0  0  0  0  0  0  0
   -2.6047    0.4280   -0.1294 C   0  0  0  0  0  0  0  0  0  0  0  0
   -1.5838    0.2058   -0.8933 N   0  0  0  0  0  0  0  0  0  0  0  0
   -0.7339   -0.8287   -0.3353 C   0  0  2  0  0  0  0  0  0  0  0  0
   -1.4293   -1.2379    0.9195 C   0  0  0  0  0  0  0  0  0  0  0  0
   -2.5645   -0.3980    0.9890 O   0  0  0  0  0  0  0  0  0  0  0  0
    0.6536   -0.3512   -0.0978 C   0  0  0  0  0  0  0  0  0  0  0  0
    0.8066    0.8871    0.5016 C   0  0  0  0  0  0  0  0  0  0  0  0
    2.0974    1.3231    0.7186 C   0  0  0  0  0  0  0  0  0  0  0  0
    3.2023    0.5618    0.3558 C   0  0  0  0  0  0  0  0  0  0  0  0
    2.9949   -0.6735   -0.2424 C   0  0  0  0  0  0  0  0  0  0  0  0
    1.7290   -1.1346   -0.4714 C   0  0  0  0  0  0  0  0  0  0  0  0
    4.8426    1.0971    0.6224 Cl  0  0  0  0  0  0  0  0  0  0  0  0
   -3.7693    2.1402    0.3960 H   0  0  0  0  0  0  0  0  0  0  0  0
   -4.3307    1.3036   -1.1396 H   0  0  0  0  0  0  0  0  0  0  0  0
   -0.6940   -1.6709   -1.0594 H   0  0  0  0  0  0  0  0  0  0  0  0
   -1.7705   -2.2888    0.9209 H   0  0  0  0  0  0  0  0  0  0  0  0
   -0.7768   -1.1372    1.8138 H   0  0  0  0  0  0  0  0  0  0  0  0
   -0.0467    1.5049    0.7962 H   0  0  0  0  0  0  0  0  0  0  0  0
    2.2764    2.2991    1.1913 H   0  0  0  0  0  0  0  0  0  0  0  0
    3.8175   -1.3144   -0.5484 H   0  0  0  0  0  0  0  0  0  0  0  0
    1.5561   -2.0835   -0.9310 H   0  0  0  0  0  0  0  0  0  0  0  0
  1  2  1  0
  2  3  2  0
  3  4  1  0
  4  5  1  0
  5  6  1  0
  4  7  1  0
  7  8  2  0
  8  9  1  0
  9 10  2  0
 10 11  1  0
 11 12  2  0
 10 13  1  0
  6  2  1  0
 12  7  1  0
  1 14  1  0
  1 15  1  0
  4 16  1  6
  5 17  1  0
  5 18  1  0
  8 19  1  0
  9 20  1  0
 11 21  1  0
 12 22  1  0
M  END
>  <Ligand ID>  (1) 
LIG0005700

>  <Ligand>  (1) 
SCHEMBL3609541

>  <SMILES>  (1) 
NC1=N[C@H](CO1)c1ccc(cc1)Cl

>  <CID>  (1) 
24966108.0

>  <ChEMBL ID>  (1) 
nan

>  <InChiKey>  (1) 
JOFNIUCTGCVSGU-MRVPVSSYSA-N

>  <InChi>  (1) 
InChI=1S/C9H9ClN2O/c10-7-3-1-6(2-4-7)8-5-13-9(11)12-8/h1-4,8H,5H2,(H2,11,12)/t8-/m1/s1

>  <IUPAC Name>  (1) 
(4S)-4-(4-chlorophenyl)-4,5-dihydro-1,3-oxazol-2-amine

$$$$
