
     RDKit          3D

 74 73  0  0  0  0  0  0  0  0999 V2000
   -8.3745    0.8278   -3.1453 C   0  0  0  0  0  0  0  0  0  0  0  0
   -7.9756    1.9497   -2.2247 C   0  0  0  0  0  0  0  0  0  0  0  0
   -6.8014    1.5684   -1.3545 C   0  0  0  0  0  0  0  0  0  0  0  0
   -7.1044    0.3714   -0.4794 C   0  0  0  0  0  0  0  0  0  0  0  0
   -5.8831    0.0564    0.3637 C   0  0  0  0  0  0  0  0  0  0  0  0
   -6.0726   -1.0858    1.2478 C   0  0  0  0  0  0  0  0  0  0  0  0
   -5.4432   -2.2237    1.3056 C   0  0  0  0  0  0  0  0  0  0  0  0
   -4.3408   -2.7513    0.5108 C   0  0  0  0  0  0  0  0  0  0  0  0
   -3.8227   -1.9359   -0.5871 C   0  0  0  0  0  0  0  0  0  0  0  0
   -2.5992   -1.4648   -0.6823 C   0  0  0  0  0  0  0  0  0  0  0  0
   -1.5683   -1.6981    0.3206 C   0  0  0  0  0  0  0  0  0  0  0  0
   -0.3808   -1.1631    0.0926 C   0  0  0  0  0  0  0  0  0  0  0  0
    0.6770   -1.3739    1.0728 C   0  0  0  0  0  0  0  0  0  0  0  0
    1.8657   -0.8390    0.8445 C   0  0  0  0  0  0  0  0  0  0  0  0
    2.9210   -1.0628    1.8465 C   0  0  2  0  0  0  0  0  0  0  0  0
    2.7387   -0.1834    3.0358 C   0  0  2  0  0  0  0  0  0  0  0  0
    2.7518    1.2792    2.8014 C   0  0  0  0  0  0  0  0  0  0  0  0
    3.9978    1.8513    2.2114 C   0  0  0  0  0  0  0  0  0  0  0  0
    3.7478    3.3652    2.0837 C   0  0  0  0  0  0  0  0  0  0  0  0
    4.9629    4.0183    1.4945 C   0  0  0  0  0  0  0  0  0  0  0  0
    5.9882    3.3642    1.1765 O   0  0  0  0  0  0  0  0  0  0  0  0
    4.8849    5.3968    1.3210 O   0  0  0  0  0  0  0  0  0  0  0  0
    3.6631   -0.4961    4.0306 O   0  0  0  0  0  0  0  0  0  0  0  0
    4.5403   -1.0600    1.1181 S   0  0  0  0  0  0  0  0  0  0  0  0
    4.9595   -2.4258    0.0724 C   0  0  0  0  0  0  0  0  0  0  0  0
    4.1954   -2.5273   -1.2059 C   0  0  0  0  0  0  0  0  0  0  0  0
    4.3907   -1.3102   -2.0293 C   0  0  0  0  0  0  0  0  0  0  0  0
    3.3912   -0.6446   -2.4326 O   0  0  0  0  0  0  0  0  0  0  0  0
    5.6784   -0.8500   -2.3930 N   0  0  0  0  0  0  0  0  0  0  0  0
    5.9171    0.3146   -3.1866 C   0  0  0  0  0  0  0  0  0  0  0  0
    5.3716    1.5371   -2.5530 C   0  0  0  0  0  0  0  0  0  0  0  0
    4.7801    1.4557   -1.4480 O   0  0  0  0  0  0  0  0  0  0  0  0
    5.4955    2.7786   -3.1482 O   0  0  0  0  0  0  0  0  0  0  0  0
    2.7821   -2.7315   -1.0022 N   0  0  0  0  0  0  0  0  0  0  0  0
   -9.2331    1.2019   -3.7731 H   0  0  0  0  0  0  0  0  0  0  0  0
   -7.5569    0.6751   -3.8955 H   0  0  0  0  0  0  0  0  0  0  0  0
   -8.6942   -0.0817   -2.6332 H   0  0  0  0  0  0  0  0  0  0  0  0
   -7.5890    2.7764   -2.8885 H   0  0  0  0  0  0  0  0  0  0  0  0
   -8.8324    2.3121   -1.6586 H   0  0  0  0  0  0  0  0  0  0  0  0
   -5.9245    1.2993   -1.9748 H   0  0  0  0  0  0  0  0  0  0  0  0
   -6.5136    2.3858   -0.6770 H   0  0  0  0  0  0  0  0  0  0  0  0
   -7.3300   -0.4783   -1.1830 H   0  0  0  0  0  0  0  0  0  0  0  0
   -8.0122    0.5072    0.1254 H   0  0  0  0  0  0  0  0  0  0  0  0
   -4.9938    0.1411   -0.2292 H   0  0  0  0  0  0  0  0  0  0  0  0
   -5.8117    0.9711    1.0654 H   0  0  0  0  0  0  0  0  0  0  0  0
   -6.8988   -0.9588    2.0016 H   0  0  0  0  0  0  0  0  0  0  0  0
   -5.8088   -2.9273    2.1060 H   0  0  0  0  0  0  0  0  0  0  0  0
   -3.4705   -3.0286    1.1729 H   0  0  0  0  0  0  0  0  0  0  0  0
   -4.6339   -3.7885    0.1046 H   0  0  0  0  0  0  0  0  0  0  0  0
   -4.5295   -1.7311   -1.4155 H   0  0  0  0  0  0  0  0  0  0  0  0
   -2.3840   -0.8707   -1.5770 H   0  0  0  0  0  0  0  0  0  0  0  0
   -1.6861   -2.2555    1.2148 H   0  0  0  0  0  0  0  0  0  0  0  0
   -0.2076   -0.5862   -0.7991 H   0  0  0  0  0  0  0  0  0  0  0  0
    0.5084   -1.9520    1.9702 H   0  0  0  0  0  0  0  0  0  0  0  0
    2.0189   -0.2478   -0.0697 H   0  0  0  0  0  0  0  0  0  0  0  0
    2.7595   -2.1229    2.2478 H   0  0  0  0  0  0  0  0  0  0  0  0
    1.7269   -0.4390    3.4661 H   0  0  0  0  0  0  0  0  0  0  0  0
    2.6391    1.7646    3.8166 H   0  0  0  0  0  0  0  0  0  0  0  0
    1.8289    1.6197    2.2575 H   0  0  0  0  0  0  0  0  0  0  0  0
    4.8726    1.7713    2.8892 H   0  0  0  0  0  0  0  0  0  0  0  0
    4.3156    1.4360    1.2530 H   0  0  0  0  0  0  0  0  0  0  0  0
    2.9033    3.5849    1.3983 H   0  0  0  0  0  0  0  0  0  0  0  0
    3.4862    3.7914    3.0711 H   0  0  0  0  0  0  0  0  0  0  0  0
    5.7516    5.8508    1.0672 H   0  0  0  0  0  0  0  0  0  0  0  0
    3.2394   -0.4120    4.9290 H   0  0  0  0  0  0  0  0  0  0  0  0
    4.8603   -3.4216    0.5735 H   0  0  0  0  0  0  0  0  0  0  0  0
    6.0439   -2.2872   -0.2365 H   0  0  0  0  0  0  0  0  0  0  0  0
    4.5765   -3.4194   -1.7765 H   0  0  0  0  0  0  0  0  0  0  0  0
    6.4912   -1.4257   -2.0396 H   0  0  0  0  0  0  0  0  0  0  0  0
    5.4032    0.2226   -4.1882 H   0  0  0  0  0  0  0  0  0  0  0  0
    6.9920    0.4342   -3.3823 H   0  0  0  0  0  0  0  0  0  0  0  0
    5.5166    3.6469   -2.6257 H   0  0  0  0  0  0  0  0  0  0  0  0
    2.2661   -2.5370   -1.8949 H   0  0  0  0  0  0  0  0  0  0  0  0
    2.5762   -3.7286   -0.7694 H   0  0  0  0  0  0  0  0  0  0  0  0
  1  2  1  0
  2  3  1  0
  3  4  1  0
  4  5  1  0
  5  6  1  0
  6  7  2  0
  7  8  1  0
  8  9  1  0
  9 10  2  0
 10 11  1  0
 11 12  2  0
 12 13  1  0
 13 14  2  0
 14 15  1  0
 15 16  1  0
 16 17  1  0
 17 18  1  0
 18 19  1  0
 19 20  1  0
 20 21  2  0
 20 22  1  0
 16 23  1  0
 15 24  1  0
 24 25  1  0
 25 26  1  0
 26 27  1  0
 27 28  2  0
 27 29  1  0
 29 30  1  0
 30 31  1  0
 31 32  2  0
 31 33  1  0
 26 34  1  0
  1 35  1  0
  1 36  1  0
  1 37  1  0
  2 38  1  0
  2 39  1  0
  3 40  1  0
  3 41  1  0
  4 42  1  0
  4 43  1  0
  5 44  1  0
  5 45  1  0
  6 46  1  0
  7 47  1  0
  8 48  1  0
  8 49  1  0
  9 50  1  0
 10 51  1  0
 11 52  1  0
 12 53  1  0
 13 54  1  0
 14 55  1  0
 15 56  1  1
 16 57  1  1
 17 58  1  0
 17 59  1  0
 18 60  1  0
 18 61  1  0
 19 62  1  0
 19 63  1  0
 22 64  1  0
 23 65  1  0
 25 66  1  0
 25 67  1  0
 26 68  1  0
 29 69  1  0
 30 70  1  0
 30 71  1  0
 33 72  1  0
 34 73  1  0
 34 74  1  0
M  END
>  <Ligand ID>  (1) 
LIG0004194

>  <Ligand>  (1) 
LTD4

>  <SMILES>  (1) 
CCCCC/C=C\C/C=C\C=C\C=C\[C@H]([C@H](CCCC(=O)O)O)SCC(C(=O)NCC(=O)O)N

>  <CID>  (1) 
6435286.0

>  <ChEMBL ID>  (1) 
nan

>  <InChiKey>  (1) 
YEESKJGWJFYOOK-LDDGIIIKSA-N

>  <InChi>  (1) 
InChI=1S/C25H40N2O6S/c1-2-3-4-5-6-7-8-9-10-11-12-13-16-22(21(28)15-14-17-23(29)30)34-19-20(26)25(33)27-18-24(31)32/h6-7,9-13,16,20-22,28H,2-5,8,14-15,17-19,26H2,1H3,(H,27,33)(H,29,30)(H,31,32)/b7-6-,10-9-,12-11+,16-13+/t20?,21-,22+/m0/s1

>  <IUPAC Name>  (1) 
(5S,6R,7E,9E,11Z,14Z)-6-[2-amino-3-(carboxymethylamino)-3-oxopropyl]sulfanyl-5-hydroxyicosa-7,9,11,14-tetraenoic acid

$$$$
