
     RDKit          3D

178183  0  0  0  0  0  0  0  0999 V2000
   -3.7694    9.8878    1.1551 N   0  0  0  0  0  0  0  0  0  0  0  0
   -3.2832    8.5635    1.2722 C   0  0  0  0  0  0  0  0  0  0  0  0
   -4.0676    7.5386    1.1731 N   0  0  0  0  0  0  0  0  0  0  0  0
   -1.9044    8.3158    1.5057 N   0  0  0  0  0  0  0  0  0  0  0  0
   -1.4391    7.2593    2.3599 C   0  0  0  0  0  0  0  0  0  0  0  0
   -1.6968    5.8682    1.8320 C   0  0  0  0  0  0  0  0  0  0  0  0
   -1.0898    4.9232    2.8668 C   0  0  0  0  0  0  0  0  0  0  0  0
   -1.2373    3.4802    2.5190 C   0  0  2  0  0  0  0  0  0  0  0  0
   -0.6373    3.1266    1.2581 N   0  0  0  0  0  0  0  0  0  0  0  0
    0.2111    2.0205    0.9909 C   0  0  0  0  0  0  0  0  0  0  0  0
    0.3829    1.2327    1.9249 O   0  0  0  0  0  0  0  0  0  0  0  0
    0.7954    1.9154   -0.3661 C   0  0  2  0  0  0  0  0  0  0  0  0
    2.2397    1.5750   -0.4403 C   0  0  0  0  0  0  0  0  0  0  0  0
    2.5672    0.2248    0.0349 C   0  0  0  0  0  0  0  0  0  0  0  0
    1.7316   -0.5343    0.5472 O   0  0  0  0  0  0  0  0  0  0  0  0
    3.8969   -0.3430   -0.0558 N   0  0  0  0  0  0  0  0  0  0  0  0
    4.1548   -1.7131    0.4162 C   0  0  0  0  0  0  0  0  0  0  0  0
    4.3844   -2.5724   -0.7530 N   0  0  0  0  0  0  0  0  0  0  0  0
    3.4507   -3.6266   -1.0866 C   0  0  0  0  0  0  0  0  0  0  0  0
    2.5093   -3.7335   -0.2895 O   0  0  0  0  0  0  0  0  0  0  0  0
    3.6156   -4.4746   -2.2534 C   0  0  0  0  0  0  0  0  0  0  0  0
    4.6002   -4.3092   -3.0657 O   0  0  0  0  0  0  0  0  0  0  0  0
    2.6737   -5.5838   -2.6028 C   0  0  1  0  0  0  0  0  0  0  0  0
    3.4827   -6.8142   -2.8362 C   0  0  0  0  0  0  0  0  0  0  0  0
    2.6859   -7.9989   -3.2148 C   0  0  0  0  0  0  0  0  0  0  0  0
    2.4657   -8.1954   -4.5743 C   0  0  0  0  0  0  0  0  0  0  0  0
    1.7360   -9.2620   -5.0562 C   0  0  0  0  0  0  0  0  0  0  0  0
    1.2117  -10.1615   -4.1326 C   0  0  0  0  0  0  0  0  0  0  0  0
    1.4237   -9.9787   -2.7595 C   0  0  0  0  0  0  0  0  0  0  0  0
    2.1594   -8.8995   -2.3128 C   0  0  0  0  0  0  0  0  0  0  0  0
    1.7485   -5.6627   -1.4966 N   0  0  0  0  0  0  0  0  0  0  0  0
    0.3567   -5.3838   -1.5716 C   0  0  0  0  0  0  0  0  0  0  0  0
   -0.0787   -5.1113   -2.6939 O   0  0  0  0  0  0  0  0  0  0  0  0
   -0.4440   -5.4428   -0.3191 C   0  0  1  0  0  0  0  0  0  0  0  0
   -1.8587   -5.2413   -0.5206 N   0  0  0  0  0  0  0  0  0  0  0  0
   -2.5615   -4.0761   -0.0921 C   0  0  0  0  0  0  0  0  0  0  0  0
   -1.8260   -3.1740    0.3530 O   0  0  0  0  0  0  0  0  0  0  0  0
   -4.0077   -3.8513   -0.1387 C   0  0  2  0  0  0  0  0  0  0  0  0
   -4.2347   -2.3710   -0.0887 N   0  0  0  0  0  0  0  0  0  0  0  0
   -5.1574   -1.7711   -1.0217 C   0  0  0  0  0  0  0  0  0  0  0  0
   -5.6684   -2.5879   -1.8019 O   0  0  0  0  0  0  0  0  0  0  0  0
   -5.4532   -0.3151   -1.0304 C   0  0  1  0  0  0  0  0  0  0  0  0
   -4.7415    0.3997    0.0138 N   0  0  0  0  0  0  0  0  0  0  0  0
   -5.3717    0.9692    1.1570 C   0  0  0  0  0  0  0  0  0  0  0  0
   -6.6048    0.8100    1.2016 O   0  0  0  0  0  0  0  0  0  0  0  0
   -4.6999    1.6917    2.2357 C   0  0  2  0  0  0  0  0  0  0  0  0
   -3.2928    2.0286    1.9541 N   0  0  0  0  0  0  0  0  0  0  0  0
   -2.6296    3.0376    2.7114 C   0  0  0  0  0  0  0  0  0  0  0  0
   -3.3194    3.5549    3.6061 O   0  0  0  0  0  0  0  0  0  0  0  0
   -4.7033    0.8411    3.5304 C   0  0  0  0  0  0  0  0  0  0  0  0
   -6.0695    0.5495    3.9657 C   0  0  0  0  0  0  0  0  0  0  0  0
   -6.7965   -0.5670    3.5850 C   0  0  0  0  0  0  0  0  0  0  0  0
   -8.0733   -0.8057    4.0369 C   0  0  0  0  0  0  0  0  0  0  0  0
   -8.7231    0.0558    4.9071 C   0  0  0  0  0  0  0  0  0  0  0  0
   -8.0069    1.1767    5.2967 C   0  0  0  0  0  0  0  0  0  0  0  0
   -6.7297    1.4148    4.8437 C   0  0  0  0  0  0  0  0  0  0  0  0
   -5.2093    0.2717   -2.3815 C   0  0  0  0  0  0  0  0  0  0  0  0
   -6.0131   -0.3209   -3.4585 C   0  0  0  0  0  0  0  0  0  0  0  0
   -5.4953   -1.3531   -4.2254 C   0  0  0  0  0  0  0  0  0  0  0  0
   -6.2409   -1.9292   -5.2237 C   0  0  0  0  0  0  0  0  0  0  0  0
   -7.5410   -1.4893   -5.4945 C   0  0  0  0  0  0  0  0  0  0  0  0
   -8.0627   -0.4563   -4.7314 C   0  0  0  0  0  0  0  0  0  0  0  0
   -7.3002    0.1033   -3.7380 C   0  0  0  0  0  0  0  0  0  0  0  0
   -4.7456   -4.4045    1.0707 C   0  0  0  0  0  0  0  0  0  0  0  0
   -4.6765   -5.8210    1.3144 C   0  0  0  0  0  0  0  0  0  0  0  0
   -4.1530   -6.7245    0.6338 O   0  0  0  0  0  0  0  0  0  0  0  0
   -5.3084   -6.2925    2.5347 N   0  0  0  0  0  0  0  0  0  0  0  0
   -0.2563   -6.7513    0.4146 C   0  0  0  0  0  0  0  0  0  0  0  0
    5.2782   -1.8028    1.3465 C   0  0  0  0  0  0  0  0  0  0  0  0
    5.4780   -2.9496    1.8919 O   0  0  0  0  0  0  0  0  0  0  0  0
    6.1536   -0.7698    1.7056 N   0  0  0  0  0  0  0  0  0  0  0  0
    7.1922   -0.8313    2.6059 N   0  0  0  0  0  0  0  0  0  0  0  0
    7.9012    0.4222    2.6343 C   0  0  1  0  0  0  0  0  0  0  0  0
    8.3641    0.7992    4.0071 C   0  0  0  0  0  0  0  0  0  0  0  0
    8.1859   -0.0574    4.9165 O   0  0  0  0  0  0  0  0  0  0  0  0
    8.9791    2.0991    4.2452 C   0  0  0  0  0  0  0  0  0  0  0  0
    9.1726    2.9594    3.3480 O   0  0  0  0  0  0  0  0  0  0  0  0
    9.3938    2.4392    5.5743 N   0  0  0  0  0  0  0  0  0  0  0  0
    9.1268    0.3777    1.7122 C   0  0  0  0  0  0  0  0  0  0  0  0
   10.0846   -0.6919    2.0908 C   0  0  0  0  0  0  0  0  0  0  0  0
   11.0477   -0.5467    3.0504 C   0  0  0  0  0  0  0  0  0  0  0  0
   11.9589   -1.5239    3.4033 C   0  0  0  0  0  0  0  0  0  0  0  0
   11.9238   -2.7421    2.7640 C   0  0  0  0  0  0  0  0  0  0  0  0
   10.9625   -2.9413    1.7792 C   0  0  0  0  0  0  0  0  0  0  0  0
   10.0554   -1.9350    1.4442 C   0  0  0  0  0  0  0  0  0  0  0  0
   12.8058   -3.7628    3.0663 O   0  0  0  0  0  0  0  0  0  0  0  0
    0.6032    3.1012   -1.1751 N   0  0  0  0  0  0  0  0  0  0  0  0
   -0.0435    3.1412   -2.4285 C   0  0  0  0  0  0  0  0  0  0  0  0
   -0.5485    2.1133   -2.9894 O   0  0  0  0  0  0  0  0  0  0  0  0
   -0.1302    4.4486   -3.1147 C   0  0  2  0  0  0  0  0  0  0  0  0
   -0.8399    5.5191   -2.3591 C   0  0  0  0  0  0  0  0  0  0  0  0
   -0.7867    6.7464   -3.2368 C   0  0  0  0  0  0  0  0  0  0  0  0
   -1.7796    7.0154   -4.1614 C   0  0  0  0  0  0  0  0  0  0  0  0
   -1.6520    8.1639   -4.9387 C   0  0  0  0  0  0  0  0  0  0  0  0
   -0.5627    8.9890   -4.7722 C   0  0  0  0  0  0  0  0  0  0  0  0
    0.4221    8.7259   -3.8579 C   0  0  0  0  0  0  0  0  0  0  0  0
    0.3022    7.5982   -3.0911 C   0  0  0  0  0  0  0  0  0  0  0  0
   -0.4512   10.1348   -5.5578 O   0  0  0  0  0  0  0  0  0  0  0  0
   -0.8195    4.2295   -4.3734 N   0  0  0  0  0  0  0  0  0  0  0  0
   -4.5149   10.3003    1.7577 H   0  0  0  0  0  0  0  0  0  0  0  0
   -3.3731   10.5397    0.4136 H   0  0  0  0  0  0  0  0  0  0  0  0
   -5.0709    7.7689    1.0030 H   0  0  0  0  0  0  0  0  0  0  0  0
   -1.2064    8.9585    1.0186 H   0  0  0  0  0  0  0  0  0  0  0  0
   -1.8100    7.3841    3.4038 H   0  0  0  0  0  0  0  0  0  0  0  0
   -0.3220    7.3344    2.4636 H   0  0  0  0  0  0  0  0  0  0  0  0
   -2.7443    5.6450    1.6357 H   0  0  0  0  0  0  0  0  0  0  0  0
   -1.1237    5.6804    0.8997 H   0  0  0  0  0  0  0  0  0  0  0  0
   -1.5669    5.0815    3.8605 H   0  0  0  0  0  0  0  0  0  0  0  0
   -0.0171    5.2273    3.0233 H   0  0  0  0  0  0  0  0  0  0  0  0
   -0.6031    2.9422    3.3412 H   0  0  0  0  0  0  0  0  0  0  0  0
   -0.8423    3.7287    0.4483 H   0  0  0  0  0  0  0  0  0  0  0  0
    0.2599    1.0562   -0.9167 H   0  0  0  0  0  0  0  0  0  0  0  0
    2.5607    1.6906   -1.4900 H   0  0  0  0  0  0  0  0  0  0  0  0
    2.8410    2.2984    0.1805 H   0  0  0  0  0  0  0  0  0  0  0  0
    4.5904    0.2791   -0.4547 H   0  0  0  0  0  0  0  0  0  0  0  0
    3.2141   -2.0652    0.8638 H   0  0  0  0  0  0  0  0  0  0  0  0
    5.1724   -2.4960   -1.3858 H   0  0  0  0  0  0  0  0  0  0  0  0
    2.1649   -5.3090   -3.5532 H   0  0  0  0  0  0  0  0  0  0  0  0
    4.0011   -7.0309   -1.8512 H   0  0  0  0  0  0  0  0  0  0  0  0
    4.3098   -6.5770   -3.5310 H   0  0  0  0  0  0  0  0  0  0  0  0
    2.8637   -7.5048   -5.3269 H   0  0  0  0  0  0  0  0  0  0  0  0
    1.5828   -9.3830   -6.1320 H   0  0  0  0  0  0  0  0  0  0  0  0
    0.6361  -11.0185   -4.4434 H   0  0  0  0  0  0  0  0  0  0  0  0
    1.0262  -10.6587   -2.0207 H   0  0  0  0  0  0  0  0  0  0  0  0
    2.3612   -8.7022   -1.2674 H   0  0  0  0  0  0  0  0  0  0  0  0
    2.1035   -5.9535   -0.5866 H   0  0  0  0  0  0  0  0  0  0  0  0
   -0.0159   -4.6355    0.3327 H   0  0  0  0  0  0  0  0  0  0  0  0
   -2.3906   -5.9367   -1.0184 H   0  0  0  0  0  0  0  0  0  0  0  0
   -4.4960   -4.2862   -1.0112 H   0  0  0  0  0  0  0  0  0  0  0  0
   -3.7839   -1.7494    0.5524 H   0  0  0  0  0  0  0  0  0  0  0  0
   -6.5439   -0.2384   -0.7361 H   0  0  0  0  0  0  0  0  0  0  0  0
   -3.7353    0.5079   -0.0476 H   0  0  0  0  0  0  0  0  0  0  0  0
   -5.1946    2.6203    2.5505 H   0  0  0  0  0  0  0  0  0  0  0  0
   -2.7205    1.5885    1.2399 H   0  0  0  0  0  0  0  0  0  0  0  0
   -4.1091   -0.0851    3.3380 H   0  0  0  0  0  0  0  0  0  0  0  0
   -4.2223    1.4983    4.2878 H   0  0  0  0  0  0  0  0  0  0  0  0
   -6.3617   -1.2936    2.9128 H   0  0  0  0  0  0  0  0  0  0  0  0
   -8.5829   -1.7009    3.6982 H   0  0  0  0  0  0  0  0  0  0  0  0
   -9.7261   -0.1559    5.2444 H   0  0  0  0  0  0  0  0  0  0  0  0
   -8.5119    1.8562    5.9791 H   0  0  0  0  0  0  0  0  0  0  0  0
   -6.2561    2.3261    5.2080 H   0  0  0  0  0  0  0  0  0  0  0  0
   -5.5340    1.3514   -2.3248 H   0  0  0  0  0  0  0  0  0  0  0  0
   -4.1156    0.2109   -2.5859 H   0  0  0  0  0  0  0  0  0  0  0  0
   -4.4913   -1.7450   -4.0858 H   0  0  0  0  0  0  0  0  0  0  0  0
   -5.8456   -2.7217   -5.8126 H   0  0  0  0  0  0  0  0  0  0  0  0
   -8.1200   -1.9645   -6.2978 H   0  0  0  0  0  0  0  0  0  0  0  0
   -9.0576   -0.1247   -4.9453 H   0  0  0  0  0  0  0  0  0  0  0  0
   -7.7709    0.9130   -3.1712 H   0  0  0  0  0  0  0  0  0  0  0  0
   -4.4856   -3.7879    1.9845 H   0  0  0  0  0  0  0  0  0  0  0  0
   -5.8391   -4.1459    0.8863 H   0  0  0  0  0  0  0  0  0  0  0  0
   -5.9256   -7.1262    2.5435 H   0  0  0  0  0  0  0  0  0  0  0  0
   -5.1441   -5.7821    3.4449 H   0  0  0  0  0  0  0  0  0  0  0  0
   -0.4689   -7.5753   -0.2813 H   0  0  0  0  0  0  0  0  0  0  0  0
    0.7818   -6.8654    0.7937 H   0  0  0  0  0  0  0  0  0  0  0  0
   -0.9543   -6.7106    1.2916 H   0  0  0  0  0  0  0  0  0  0  0  0
    5.9862    0.1641    1.2176 H   0  0  0  0  0  0  0  0  0  0  0  0
    7.8149   -1.6183    2.3675 H   0  0  0  0  0  0  0  0  0  0  0  0
    7.3034    1.2803    2.2523 H   0  0  0  0  0  0  0  0  0  0  0  0
    9.4434    3.4667    5.8463 H   0  0  0  0  0  0  0  0  0  0  0  0
    9.6459    1.7290    6.2946 H   0  0  0  0  0  0  0  0  0  0  0  0
    8.7290    0.1738    0.6855 H   0  0  0  0  0  0  0  0  0  0  0  0
    9.6154    1.3694    1.7314 H   0  0  0  0  0  0  0  0  0  0  0  0
   11.1379    0.3847    3.5960 H   0  0  0  0  0  0  0  0  0  0  0  0
   12.7170   -1.3656    4.1834 H   0  0  0  0  0  0  0  0  0  0  0  0
   10.9249   -3.9047    1.2652 H   0  0  0  0  0  0  0  0  0  0  0  0
    9.3418   -2.1603    0.6631 H   0  0  0  0  0  0  0  0  0  0  0  0
   12.9578   -4.1375    3.9946 H   0  0  0  0  0  0  0  0  0  0  0  0
    0.9975    3.9998   -0.7586 H   0  0  0  0  0  0  0  0  0  0  0  0
    0.8932    4.8574   -3.3566 H   0  0  0  0  0  0  0  0  0  0  0  0
   -0.3239    5.7966   -1.4194 H   0  0  0  0  0  0  0  0  0  0  0  0
   -1.9106    5.3030   -2.1730 H   0  0  0  0  0  0  0  0  0  0  0  0
   -2.6205    6.3714   -4.2822 H   0  0  0  0  0  0  0  0  0  0  0  0
   -2.3794    8.4470   -5.6798 H   0  0  0  0  0  0  0  0  0  0  0  0
    1.2859    9.4016   -3.7393 H   0  0  0  0  0  0  0  0  0  0  0  0
    1.0674    7.3653   -2.3568 H   0  0  0  0  0  0  0  0  0  0  0  0
   -0.8490   11.0058   -5.2540 H   0  0  0  0  0  0  0  0  0  0  0  0
   -1.5562    3.4838   -4.2019 H   0  0  0  0  0  0  0  0  0  0  0  0
   -0.1748    3.9274   -5.1239 H   0  0  0  0  0  0  0  0  0  0  0  0
  1  2  1  0
  2  3  2  3
  2  4  1  0
  4  5  1  0
  5  6  1  0
  6  7  1  0
  7  8  1  0
  8  9  1  0
  9 10  1  0
 10 11  2  0
 10 12  1  0
 12 13  1  0
 13 14  1  0
 14 15  2  0
 14 16  1  0
 16 17  1  0
 17 18  1  0
 18 19  1  0
 19 20  2  0
 19 21  1  0
 21 22  2  0
 21 23  1  0
 23 24  1  0
 24 25  1  0
 25 26  2  0
 26 27  1  0
 27 28  2  0
 28 29  1  0
 29 30  2  0
 23 31  1  0
 31 32  1  0
 32 33  2  0
 32 34  1  0
 34 35  1  0
 35 36  1  0
 36 37  2  0
 36 38  1  0
 38 39  1  0
 39 40  1  0
 40 41  2  0
 40 42  1  0
 42 43  1  0
 43 44  1  0
 44 45  2  0
 44 46  1  0
 46 47  1  0
 47 48  1  0
 48 49  2  0
 46 50  1  0
 50 51  1  0
 51 52  2  0
 52 53  1  0
 53 54  2  0
 54 55  1  0
 55 56  2  0
 42 57  1  0
 57 58  1  0
 58 59  2  0
 59 60  1  0
 60 61  2  0
 61 62  1  0
 62 63  2  0
 38 64  1  0
 64 65  1  0
 65 66  2  0
 65 67  1  0
 34 68  1  0
 17 69  1  0
 69 70  2  0
 69 71  1  0
 71 72  1  0
 72 73  1  0
 73 74  1  0
 74 75  2  0
 74 76  1  0
 76 77  2  0
 76 78  1  0
 73 79  1  0
 79 80  1  0
 80 81  2  0
 81 82  1  0
 82 83  2  0
 83 84  1  0
 84 85  2  0
 83 86  1  0
 12 87  1  0
 87 88  1  0
 88 89  2  0
 88 90  1  0
 90 91  1  0
 91 92  1  0
 92 93  2  0
 93 94  1  0
 94 95  2  0
 95 96  1  0
 96 97  2  0
 95 98  1  0
 90 99  1  0
 48  8  1  0
 56 51  1  0
 63 58  1  0
 85 80  1  0
 97 92  1  0
 30 25  1  0
  1100  1  0
  1101  1  0
  3102  1  0
  4103  1  0
  5104  1  0
  5105  1  0
  6106  1  0
  6107  1  0
  7108  1  0
  7109  1  0
  8110  1  1
  9111  1  0
 12112  1  6
 13113  1  0
 13114  1  0
 16115  1  0
 17116  1  0
 18117  1  0
 23118  1  6
 24119  1  0
 24120  1  0
 26121  1  0
 27122  1  0
 28123  1  0
 29124  1  0
 30125  1  0
 31126  1  0
 34127  1  1
 35128  1  0
 38129  1  6
 39130  1  0
 42131  1  1
 43132  1  0
 46133  1  1
 47134  1  0
 50135  1  0
 50136  1  0
 52137  1  0
 53138  1  0
 54139  1  0
 55140  1  0
 56141  1  0
 57142  1  0
 57143  1  0
 59144  1  0
 60145  1  0
 61146  1  0
 62147  1  0
 63148  1  0
 64149  1  0
 64150  1  0
 67151  1  0
 67152  1  0
 68153  1  0
 68154  1  0
 68155  1  0
 71156  1  0
 72157  1  0
 73158  1  6
 78159  1  0
 78160  1  0
 79161  1  0
 79162  1  0
 81163  1  0
 82164  1  0
 84165  1  0
 85166  1  0
 86167  1  0
 87168  1  0
 90169  1  6
 91170  1  0
 91171  1  0
 93172  1  0
 94173  1  0
 96174  1  0
 97175  1  0
 98176  1  0
 99177  1  0
 99178  1  0
M  END
>  <Ligand ID>  (1) 
LIG0005488

>  <Ligand>  (1) 
CHEMBL402258

>  <SMILES>  (1) 
NC(=N)NCCC[C@@H]1NC(=O)[C@H](CC(=O)NC(NC(=O)C(=O)[C@@H](Cc2ccccc2)NC(=O)[C@@H](NC(=O)[C@H](NC(=O)[C@@H](NC(=O)[C@H](NC1=O)Cc1ccccc1)Cc1ccccc1)CC(=O)N)C)C(=O)NN[C@@H](C(=O)C(=O)N)Cc1ccc(cc1)O)NC(=O)[C@H](Cc1ccc(cc1)O)N

>  <CID>  (1) 
91932911.0

>  <ChEMBL ID>  (1) 
nan

>  <InChiKey>  (1) 
IACONDRWYPLPQZ-WKNXYHTMSA-N

>  <InChi>  (1) 
InChI=1S/C66H79N17O16/c1-35-57(91)75-45(29-36-12-5-2-6-13-36)54(89)64(98)81-56(65(99)83-82-46(53(88)55(69)90)30-40-21-25-42(85)26-22-40)80-52(87)34-50(76-58(92)43(67)28-39-19-23-41(84)24-20-39)63(97)74-44(18-11-27-72-66(70)71)59(93)77-47(31-37-14-7-3-8-15-37)61(95)78-48(32-38-16-9-4-10-17-38)62(96)79-49(33-51(68)86)60(94)73-35/h2-10,12-17,19-26,35,43-50,56,82,84-85H,11,18,27-34,67H2,1H3,(H2,68,86)(H2,69,90)(H,73,94)(H,74,97)(H,75,91)(H,76,92)(H,77,93)(H,78,95)(H,79,96)(H,80,87)(H,81,98)(H,83,99)(H4,70,71,72)/t35-,43-,44-,45+,46+,47+,48-,49+,50-,56?/m0/s1

>  <IUPAC Name>  (1) 
(3R)-3-[2-[(6R,9S,12R,15S,18R,21S,24S)-24-[[(2S)-2-amino-3-(4-hydroxyphenyl)propanoyl]amino]-12-(2-amino-2-oxoethyl)-6,15,18-tribenzyl-21-(3-carbamimidamidopropyl)-9-methyl-4,5,8,11,14,17,20,23,26-nonaoxo-1,3,7,10,13,16,19,22-octazacyclohexacosane-2-carbonyl]hydrazinyl]-4-(4-hydroxyphenyl)-2-oxobutanamide

$$$$
