
     RDKit          3D

 76 83  0  0  0  0  0  0  0  0999 V2000
   -2.7278   -3.5844   -0.9005 C   0  0  0  0  0  0  0  0  0  0  0  0
   -2.6590   -2.2806   -0.6107 O   0  0  0  0  0  0  0  0  0  0  0  0
   -1.5020   -1.6301   -0.3619 C   0  0  2  0  0  0  0  0  0  0  0  0
   -0.8271   -2.2663    0.8476 C   0  0  0  0  0  0  0  0  0  0  0  0
    0.4330   -1.5752    1.2874 C   0  0  0  0  0  0  0  0  0  0  0  0
    0.6729   -0.4829    0.2745 C   0  0  2  0  0  0  0  0  0  0  0  0
   -0.4831    0.4353    0.4591 C   0  0  0  0  0  0  0  0  0  0  0  0
   -1.6719   -0.1394   -0.2597 C   0  0  2  0  0  0  0  0  0  0  0  0
   -2.9984    0.3855    0.0990 C   0  0  2  0  0  0  0  0  0  0  0  0
   -2.9876    1.8836    0.1578 C   0  0  0  0  0  0  0  0  0  0  0  0
   -3.2836    2.6755   -0.9302 C   0  0  0  0  0  0  0  0  0  0  0  0
   -3.2804    4.0541   -0.8951 C   0  0  0  0  0  0  0  0  0  0  0  0
   -2.9647    4.6848    0.2891 C   0  0  0  0  0  0  0  0  0  0  0  0
   -2.6642    3.9501    1.3935 C   0  0  0  0  0  0  0  0  0  0  0  0
   -2.6740    2.5608    1.3342 C   0  0  0  0  0  0  0  0  0  0  0  0
   -3.8416   -0.2172    1.1364 C   0  0  0  0  0  0  0  0  0  0  0  0
   -3.4470   -0.3408    2.5315 C   0  0  0  0  0  0  0  0  0  0  0  0
   -3.8221    0.1377   -1.0529 O   0  0  0  0  0  0  0  0  0  0  0  0
    0.7273   -1.1583   -1.0706 C   0  0  2  0  0  0  0  0  0  0  0  0
   -0.5265   -1.8937   -1.4738 C   0  0  1  0  0  0  0  0  0  0  0  0
   -0.1520   -3.2284   -1.6866 O   0  0  0  0  0  0  0  0  0  0  0  0
    1.1216   -3.4845   -1.2053 C   0  0  0  0  0  0  0  0  0  0  0  0
    1.6365   -2.3025   -0.8205 C   0  0  0  0  0  0  0  0  0  0  0  0
    2.8639   -2.0697   -0.2771 C   0  0  0  0  0  0  0  0  0  0  0  0
    3.1938   -0.6827    0.1172 C   0  0  0  0  0  0  0  0  0  0  0  0
    2.0151    0.1976    0.4032 C   0  0  1  0  0  0  0  0  0  0  0  0
    1.9787    1.3657   -0.4392 N   0  0  0  0  0  0  0  0  0  0  0  0
    1.5538    1.1211   -1.7824 C   0  0  0  0  0  0  0  0  0  0  0  0
    1.3308   -0.3169   -2.1388 C   0  0  0  0  0  0  0  0  0  0  0  0
    3.1050    2.2321   -0.3350 C   0  0  0  0  0  0  0  0  0  0  0  0
    3.1742    2.9246    0.9854 C   0  0  0  0  0  0  0  0  0  0  0  0
    4.2961    3.8774    1.2739 C   0  0  0  0  0  0  0  0  0  0  0  0
    2.9697    4.4450    0.9921 C   0  0  0  0  0  0  0  0  0  0  0  0
    3.6810   -3.1641   -0.1012 C   0  0  0  0  0  0  0  0  0  0  0  0
    3.2076   -4.4209   -0.4826 C   0  0  0  0  0  0  0  0  0  0  0  0
    1.9389   -4.6018   -1.0328 C   0  0  0  0  0  0  0  0  0  0  0  0
    1.4579   -5.8407   -1.4139 O   0  0  0  0  0  0  0  0  0  0  0  0
   -2.2326   -3.9553   -1.8183 H   0  0  0  0  0  0  0  0  0  0  0  0
   -3.8246   -3.8154   -1.0982 H   0  0  0  0  0  0  0  0  0  0  0  0
   -2.5073   -4.2688   -0.0322 H   0  0  0  0  0  0  0  0  0  0  0  0
   -1.4925   -2.3270    1.7321 H   0  0  0  0  0  0  0  0  0  0  0  0
   -0.5689   -3.2992    0.5640 H   0  0  0  0  0  0  0  0  0  0  0  0
    0.2644   -1.0209    2.2645 H   0  0  0  0  0  0  0  0  0  0  0  0
    1.2433   -2.2543    1.4868 H   0  0  0  0  0  0  0  0  0  0  0  0
   -0.2625    1.4881    0.1323 H   0  0  0  0  0  0  0  0  0  0  0  0
   -0.6552    0.5689    1.5674 H   0  0  0  0  0  0  0  0  0  0  0  0
   -1.4720    0.2648   -1.3054 H   0  0  0  0  0  0  0  0  0  0  0  0
   -3.5358    2.1974   -1.8752 H   0  0  0  0  0  0  0  0  0  0  0  0
   -3.5300    4.6010   -1.8113 H   0  0  0  0  0  0  0  0  0  0  0  0
   -2.9718    5.7615    0.2823 H   0  0  0  0  0  0  0  0  0  0  0  0
   -2.4142    4.4442    2.3310 H   0  0  0  0  0  0  0  0  0  0  0  0
   -2.4308    2.0408    2.2229 H   0  0  0  0  0  0  0  0  0  0  0  0
   -4.7632    0.4511    1.1503 H   0  0  0  0  0  0  0  0  0  0  0  0
   -4.3366   -1.1758    0.7754 H   0  0  0  0  0  0  0  0  0  0  0  0
   -3.8951    0.4403    3.2209 H   0  0  0  0  0  0  0  0  0  0  0  0
   -2.4134   -0.4081    2.8263 H   0  0  0  0  0  0  0  0  0  0  0  0
   -3.9130   -1.2839    2.9606 H   0  0  0  0  0  0  0  0  0  0  0  0
   -3.2852    0.0494   -1.8624 H   0  0  0  0  0  0  0  0  0  0  0  0
   -0.9122   -1.5171   -2.4556 H   0  0  0  0  0  0  0  0  0  0  0  0
    3.8034   -0.2662   -0.7242 H   0  0  0  0  0  0  0  0  0  0  0  0
    3.9154   -0.6795    0.9878 H   0  0  0  0  0  0  0  0  0  0  0  0
    2.0924    0.5501    1.4431 H   0  0  0  0  0  0  0  0  0  0  0  0
    2.3505    1.5291   -2.4502 H   0  0  0  0  0  0  0  0  0  0  0  0
    0.6522    1.7001   -2.0678 H   0  0  0  0  0  0  0  0  0  0  0  0
    0.6674   -0.3363   -3.0484 H   0  0  0  0  0  0  0  0  0  0  0  0
    2.2906   -0.7273   -2.5275 H   0  0  0  0  0  0  0  0  0  0  0  0
    4.0729    1.7521   -0.6187 H   0  0  0  0  0  0  0  0  0  0  0  0
    2.9639    3.0198   -1.1268 H   0  0  0  0  0  0  0  0  0  0  0  0
    2.6975    2.4385    1.8474 H   0  0  0  0  0  0  0  0  0  0  0  0
    5.0755    3.9296    0.4675 H   0  0  0  0  0  0  0  0  0  0  0  0
    4.7589    3.9202    2.2832 H   0  0  0  0  0  0  0  0  0  0  0  0
    2.4467    4.9016    1.8611 H   0  0  0  0  0  0  0  0  0  0  0  0
    2.7488    4.8921    0.0063 H   0  0  0  0  0  0  0  0  0  0  0  0
    4.6602   -3.0131    0.3259 H   0  0  0  0  0  0  0  0  0  0  0  0
    3.8456   -5.3033   -0.3502 H   0  0  0  0  0  0  0  0  0  0  0  0
    2.0222   -6.5388   -1.8777 H   0  0  0  0  0  0  0  0  0  0  0  0
  1  2  1  0
  3  2  1  6
  3  4  1  0
  4  5  1  0
  6  5  1  1
  6  7  1  0
  7  8  1  0
  8  9  1  0
  9 10  1  0
 10 11  2  0
 11 12  1  0
 12 13  2  0
 13 14  1  0
 14 15  2  0
  9 16  1  0
 16 17  1  0
  9 18  1  6
  6 19  1  0
 19 20  1  0
 20 21  1  0
 21 22  1  0
 22 23  2  0
 23 24  1  0
 24 25  1  0
 25 26  1  0
 26 27  1  0
 27 28  1  0
 28 29  1  0
 27 30  1  0
 30 31  1  0
 31 32  1  0
 32 33  1  0
 24 34  2  0
 34 35  1  0
 35 36  2  0
 36 37  1  0
  8  3  1  0
 15 10  1  0
 19 29  1  6
 33 31  1  0
 20  3  1  0
 36 22  1  0
 26  6  1  0
 23 19  1  0
  1 38  1  0
  1 39  1  0
  1 40  1  0
  4 41  1  0
  4 42  1  0
  5 43  1  0
  5 44  1  0
  7 45  1  0
  7 46  1  0
  8 47  1  6
 11 48  1  0
 12 49  1  0
 13 50  1  0
 14 51  1  0
 15 52  1  0
 16 53  1  0
 16 54  1  0
 17 55  1  0
 17 56  1  0
 17 57  1  0
 18 58  1  0
 20 59  1  6
 25 60  1  0
 25 61  1  0
 26 62  1  1
 28 63  1  0
 28 64  1  0
 29 65  1  0
 29 66  1  0
 30 67  1  0
 30 68  1  0
 31 69  1  0
 32 70  1  0
 32 71  1  0
 33 72  1  0
 33 73  1  0
 34 74  1  0
 35 75  1  0
 37 76  1  0
M  END
>  <Ligand ID>  (1) 
LIG0003534

>  <Ligand>  (1) 
CHEMBL3262091

>  <SMILES>  (1) 
CO[C@]12CC[C@]3(C[C@@H]1[C@](c1ccccc1)(CC)O)[C@@]14[C@H]2Oc2c4c(C[C@H]3N(CC1)CC1CC1)ccc2O

>  <CID>  (1) 
90656668.0

>  <ChEMBL ID>  (1) 
nan

>  <InChiKey>  (1) 
GFFDOSHSNIMJQO-JGSIVOCFSA-N

>  <InChi>  (1) 
InChI=1S/C32H39NO4/c1-3-31(35,22-7-5-4-6-8-22)24-18-29-13-14-32(24,36-2)28-30(29)15-16-33(19-20-9-10-20)25(29)17-21-11-12-23(34)27(37-28)26(21)30/h4-8,11-12,20,24-25,28,34-35H,3,9-10,13-19H2,1-2H3/t24-,25-,28-,29-,30+,31-,32-/m1/s1

>  <IUPAC Name>  (1) 
(1S,2S,6R,14R,15R,16R)-5-(cyclopropylmethyl)-16-[(1S)-1-hydroxy-1-phenylpropyl]-15-methoxy-13-oxa-5-azahexacyclo[13.2.2.12,8.01,6.02,14.012,20]icosa-8(20),9,11-trien-11-ol

$$$$
