
     RDKit          3D

 16 16  0  0  0  0  0  0  0  0999 V2000
    2.1775   -1.8862    0.7121 O   0  0  0  0  0  0  0  0  0  0  0  0
    1.3643   -0.8100    0.3326 C   0  0  0  0  0  0  0  0  0  0  0  0
    1.9905    0.3798   -0.0077 C   0  0  0  0  0  0  0  0  0  0  0  0
    1.2193    1.4725   -0.3902 C   0  0  0  0  0  0  0  0  0  0  0  0
    2.0935    3.1143   -0.8593 Br  0  0  0  0  0  0  0  0  0  0  0  0
   -0.1549    1.3880   -0.4351 C   0  0  0  0  0  0  0  0  0  0  0  0
   -0.7376    0.1868   -0.0889 C   0  0  0  0  0  0  0  0  0  0  0  0
   -0.0179   -0.9240    0.2965 C   0  0  0  0  0  0  0  0  0  0  0  0
   -2.1937    0.1108   -0.1407 C   0  0  0  0  0  0  0  0  0  0  0  0
   -2.9042    1.0746   -0.4796 O   0  0  0  0  0  0  0  0  0  0  0  0
   -2.8531   -1.0855    0.1999 O   0  0  0  0  0  0  0  0  0  0  0  0
    2.0142   -2.8300    0.3877 H   0  0  0  0  0  0  0  0  0  0  0  0
    3.0581    0.4977    0.0108 H   0  0  0  0  0  0  0  0  0  0  0  0
   -0.7769    2.2292   -0.7310 H   0  0  0  0  0  0  0  0  0  0  0  0
   -0.4997   -1.8489    0.5613 H   0  0  0  0  0  0  0  0  0  0  0  0
   -3.7796   -1.0692    0.6315 H   0  0  0  0  0  0  0  0  0  0  0  0
  1  2  1  0
  2  3  2  0
  3  4  1  0
  4  5  1  0
  4  6  2  0
  6  7  1  0
  7  8  2  0
  7  9  1  0
  9 10  2  0
  9 11  1  0
  8  2  1  0
  1 12  1  0
  3 13  1  0
  6 14  1  0
  8 15  1  0
 11 16  1  0
M  END
>  <Ligand ID>  (1) 
LIG0005748

>  <Ligand>  (1) 
3-Bromo-5-hydroxybenzoic acid

>  <SMILES>  (1) 
Oc1cc(Br)cc(c1)C(=O)O

>  <CID>  (1) 
15735511.0

>  <ChEMBL ID>  (1) 
nan

>  <InChiKey>  (1) 
WGIBEMRBLBGETQ-UHFFFAOYSA-N

>  <InChi>  (1) 
InChI=1S/C7H5BrO3/c8-5-1-4(7(10)11)2-6(9)3-5/h1-3,9H,(H,10,11)

>  <IUPAC Name>  (1) 
3-bromo-5-hydroxybenzoic acid

$$$$
