
     RDKit          3D

 64 67  0  0  0  0  0  0  0  0999 V2000
   -8.4885   -2.5813    0.1102 Cl  0  0  0  0  0  0  0  0  0  0  0  0
   -6.9685   -1.7769   -0.1424 C   0  0  0  0  0  0  0  0  0  0  0  0
   -6.5063   -0.7962    0.7074 C   0  0  0  0  0  0  0  0  0  0  0  0
   -5.2854   -0.1735    0.4759 C   0  0  0  0  0  0  0  0  0  0  0  0
   -4.5190   -0.5327   -0.6135 C   0  0  0  0  0  0  0  0  0  0  0  0
   -5.0108   -1.5211   -1.4486 C   0  0  0  0  0  0  0  0  0  0  0  0
   -6.2162   -2.1516   -1.2398 C   0  0  0  0  0  0  0  0  0  0  0  0
   -3.1925    0.1150   -0.9023 C   0  0  0  0  0  0  0  0  0  0  0  0
   -2.1205   -0.5871   -0.2340 N   0  0  0  0  0  0  0  0  0  0  0  0
   -2.1552   -0.9905    1.0549 C   0  0  0  0  0  0  0  0  0  0  0  0
   -0.9763   -1.6325    1.3827 C   0  0  0  0  0  0  0  0  0  0  0  0
   -0.2204   -1.6129    0.2667 N   0  0  0  0  0  0  0  0  0  0  0  0
   -0.9273   -0.9772   -0.7008 C   0  0  0  0  0  0  0  0  0  0  0  0
    1.1032   -2.1562    0.0811 C   0  0  0  0  0  0  0  0  0  0  0  0
    2.2166   -1.1931    0.3925 C   0  0  0  0  0  0  0  0  0  0  0  0
    3.5441   -1.8702    0.1626 C   0  0  0  0  0  0  0  0  0  0  0  0
    4.1608   -1.8093   -1.0833 C   0  0  0  0  0  0  0  0  0  0  0  0
    5.3737   -2.4122   -1.3403 C   0  0  0  0  0  0  0  0  0  0  0  0
    5.9901   -3.0997   -0.3150 C   0  0  0  0  0  0  0  0  0  0  0  0
    5.3836   -3.1635    0.9221 C   0  0  0  0  0  0  0  0  0  0  0  0
    4.1691   -2.5653    1.1965 C   0  0  0  0  0  0  0  0  0  0  0  0
    3.4073   -2.6476    2.7586 Cl  0  0  0  0  0  0  0  0  0  0  0  0
    7.5137   -3.8589   -0.6336 Cl  0  0  0  0  0  0  0  0  0  0  0  0
    2.1349   -0.6486    1.6449 O   0  0  0  0  0  0  0  0  0  0  0  0
    2.0310    0.7297    1.6588 C   0  0  0  0  0  0  0  0  0  0  0  0
    3.1775    1.4282    1.0232 C   0  0  0  0  0  0  0  0  0  0  0  0
    3.1146    2.0099   -0.2238 C   0  0  0  0  0  0  0  0  0  0  0  0
    4.2184    2.6455   -0.7560 C   0  0  0  0  0  0  0  0  0  0  0  0
    5.4074    2.7241   -0.0765 C   0  0  0  0  0  0  0  0  0  0  0  0
    5.4920    2.1406    1.1899 C   0  0  0  0  0  0  0  0  0  0  0  0
    4.3830    1.5124    1.7032 C   0  0  0  0  0  0  0  0  0  0  0  0
    4.5630    0.7964    3.3117 Cl  0  0  0  0  0  0  0  0  0  0  0  0
    6.7964    3.5430   -0.7869 Cl  0  0  0  0  0  0  0  0  0  0  0  0
   -3.2618    1.5480   -0.6073 C   0  0  0  0  0  0  0  0  0  0  0  0
   -2.9590    2.1214    0.6094 C   0  0  0  0  0  0  0  0  0  0  0  0
   -3.0457    3.4923    0.8241 C   0  0  0  0  0  0  0  0  0  0  0  0
   -3.4516    4.3117   -0.2239 C   0  0  0  0  0  0  0  0  0  0  0  0
   -3.7640    3.7654   -1.4621 C   0  0  0  0  0  0  0  0  0  0  0  0
   -3.6613    2.4008   -1.6217 C   0  0  0  0  0  0  0  0  0  0  0  0
   -3.5758    6.0569    0.0050 Cl  0  0  0  0  0  0  0  0  0  0  0  0
    0.0000    0.0000    0.0000 Cl  0  0  0  0  0  0  0  0  0  0  0  0
   -7.1266   -0.5264    1.5626 H   0  0  0  0  0  0  0  0  0  0  0  0
   -4.9168    0.6007    1.1437 H   0  0  0  0  0  0  0  0  0  0  0  0
   -4.4023   -1.7976   -2.3027 H   0  0  0  0  0  0  0  0  0  0  0  0
   -6.5652   -2.9270   -1.9252 H   0  0  0  0  0  0  0  0  0  0  0  0
   -3.0105   -0.0437   -2.0055 H   0  0  0  0  0  0  0  0  0  0  0  0
   -2.9512   -0.8685    1.7898 H   0  0  0  0  0  0  0  0  0  0  0  0
   -0.6870   -2.0662    2.3113 H   0  0  0  0  0  0  0  0  0  0  0  0
   -0.5687   -0.8145   -1.7013 H   0  0  0  0  0  0  0  0  0  0  0  0
    1.1695   -2.5454   -0.9546 H   0  0  0  0  0  0  0  0  0  0  0  0
    1.2749   -3.0642    0.7257 H   0  0  0  0  0  0  0  0  0  0  0  0
    2.1775   -0.3777   -0.3565 H   0  0  0  0  0  0  0  0  0  0  0  0
    3.6990   -1.2774   -1.9041 H   0  0  0  0  0  0  0  0  0  0  0  0
    5.8529   -2.3611   -2.3205 H   0  0  0  0  0  0  0  0  0  0  0  0
    5.8919   -3.7103    1.7067 H   0  0  0  0  0  0  0  0  0  0  0  0
    1.7918    1.1332    2.6616 H   0  0  0  0  0  0  0  0  0  0  0  0
    1.1095    0.9586    1.0461 H   0  0  0  0  0  0  0  0  0  0  0  0
    2.1968    1.9722   -0.7925 H   0  0  0  0  0  0  0  0  0  0  0  0
    4.1840    3.1108   -1.7426 H   0  0  0  0  0  0  0  0  0  0  0  0
    6.4427    2.2113    1.7183 H   0  0  0  0  0  0  0  0  0  0  0  0
   -2.6435    1.4797    1.4203 H   0  0  0  0  0  0  0  0  0  0  0  0
   -2.7962    3.9129    1.8068 H   0  0  0  0  0  0  0  0  0  0  0  0
   -4.0853    4.4114   -2.2920 H   0  0  0  0  0  0  0  0  0  0  0  0
   -3.9118    2.0060   -2.5991 H   0  0  0  0  0  0  0  0  0  0  0  0
  1  2  1  0
  2  3  2  0
  3  4  1  0
  4  5  2  0
  5  6  1  0
  6  7  2  0
  5  8  1  0
  8  9  1  0
  9 10  1  0
 10 11  2  0
 11 12  1  0
 12 13  2  0
 12 14  1  0
 14 15  1  0
 15 16  1  0
 16 17  2  0
 17 18  1  0
 18 19  2  0
 19 20  1  0
 20 21  2  0
 21 22  1  0
 19 23  1  0
 15 24  1  0
 24 25  1  0
 25 26  1  0
 26 27  2  0
 27 28  1  0
 28 29  2  0
 29 30  1  0
 30 31  2  0
 31 32  1  0
 29 33  1  0
  8 34  1  0
 34 35  2  0
 35 36  1  0
 36 37  2  0
 37 38  1  0
 38 39  2  0
 37 40  1  0
  7  2  1  0
 13  9  1  0
 21 16  1  0
 31 26  1  0
 39 34  1  0
  3 42  1  0
  4 43  1  0
  6 44  1  0
  7 45  1  0
  8 46  1  0
 10 47  1  0
 11 48  1  0
 13 49  1  0
 14 50  1  0
 14 51  1  0
 15 52  1  0
 17 53  1  0
 18 54  1  0
 20 55  1  0
 25 56  1  0
 25 57  1  0
 27 58  1  0
 28 59  1  0
 30 60  1  0
 35 61  1  0
 36 62  1  0
 38 63  1  0
 39 64  1  0
M  CHG  2  12   1  41  -1
M  END
>  <Ligand ID>  (1) 
LIG0002534

>  <Ligand>  (1) 
calmidazolium chloride

>  <SMILES>  (1) 
Clc1ccc(cc1)C(n1cc[n+](c1)CC(c1ccc(cc1Cl)Cl)OCc1ccc(cc1Cl)Cl)c1ccc(cc1)Cl.[Cl-]

>  <CID>  (1) 
644274.0

>  <ChEMBL ID>  (1) 
nan

>  <InChiKey>  (1) 
YGEIMSMISRCBFF-UHFFFAOYSA-M

>  <InChi>  (1) 
InChI=1S/C31H23Cl6N2O.ClH/c32-23-6-1-20(2-7-23)31(21-3-8-24(33)9-4-21)39-14-13-38(19-39)17-30(27-12-11-26(35)16-29(27)37)40-18-22-5-10-25(34)15-28(22)36;/h1-16,19,30-31H,17-18H2;1H/q+1;/p-1

>  <IUPAC Name>  (1) 
1-[bis(4-chlorophenyl)methyl]-3-[2-(2,4-dichlorophenyl)-2-[(2,4-dichlorophenyl)methoxy]ethyl]imidazol-3-ium;chloride

$$$$
