
     RDKit          3D

 75 80  0  0  0  0  0  0  0  0999 V2000
   -5.2588    1.3210   -2.5137 C   0  0  0  0  0  0  0  0  0  0  0  0
   -3.8092    0.8262   -2.0523 C   0  0  1  0  0  0  0  0  0  0  0  0
   -3.6133    1.6276   -0.7961 C   0  0  0  0  0  0  0  0  0  0  0  0
   -2.2711    1.8624   -0.2704 C   0  0  0  0  0  0  0  0  0  0  0  0
   -1.6849    1.5802    0.8622 C   0  0  0  0  0  0  0  0  0  0  0  0
   -0.2860    1.9218    1.1886 C   0  0  1  0  0  0  0  0  0  0  0  0
   -0.0798    2.9672    2.2110 C   0  0  2  0  0  0  0  0  0  0  0  0
    0.7876    4.0322    1.8286 O   0  0  0  0  0  0  0  0  0  0  0  0
    1.1367    3.1107    2.8287 C   0  0  1  0  0  0  0  0  0  0  0  0
    1.1614    3.7105    4.2527 C   0  0  0  0  0  0  0  0  0  0  0  0
    2.2626    2.2275    2.4714 C   0  0  2  0  0  0  0  0  0  0  0  0
    2.0013    0.9984    1.6545 C   0  0  2  0  0  0  0  0  0  0  0  0
    0.5792    0.7007    1.4481 C   0  0  1  0  0  0  0  0  0  0  0  0
    0.2746    0.0286    2.7556 C   0  0  0  0  0  0  0  0  0  0  0  0
   -0.6939    0.1715    3.5285 O   0  0  0  0  0  0  0  0  0  0  0  0
    1.4200   -0.8590    2.9065 N   0  0  0  0  0  0  0  0  0  0  0  0
    2.5975   -0.1878    2.3394 C   0  0  1  0  0  0  0  0  0  0  0  0
    3.5022   -1.0753    1.5983 C   0  0  0  0  0  0  0  0  0  0  0  0
    3.0805   -1.7855    0.4135 C   0  0  0  0  0  0  0  0  0  0  0  0
    2.5737   -3.1100    0.4751 C   0  0  0  0  0  0  0  0  0  0  0  0
    2.2290   -3.5050   -0.7540 N   0  0  0  0  0  0  0  0  0  0  0  0
    2.4664   -2.5446   -1.6396 C   0  0  0  0  0  0  0  0  0  0  0  0
    2.9950   -1.4788   -0.9204 C   0  0  0  0  0  0  0  0  0  0  0  0
    3.3443   -0.3503   -1.6147 C   0  0  0  0  0  0  0  0  0  0  0  0
    3.1715   -0.2783   -2.9765 C   0  0  0  0  0  0  0  0  0  0  0  0
    2.6427   -1.3443   -3.6838 C   0  0  0  0  0  0  0  0  0  0  0  0
    2.2835   -2.4954   -3.0141 C   0  0  0  0  0  0  0  0  0  0  0  0
    0.1382   -0.2684    0.4205 C   0  0  0  0  0  0  0  0  0  0  0  0
   -0.1887   -1.3691    0.7343 O   0  0  0  0  0  0  0  0  0  0  0  0
    0.1056    0.2534   -0.9417 C   0  0  0  0  0  0  0  0  0  0  0  0
   -0.5171   -0.2758   -1.9498 C   0  0  0  0  0  0  0  0  0  0  0  0
   -1.2697   -1.4811   -1.8195 C   0  0  0  0  0  0  0  0  0  0  0  0
   -1.2939   -2.3206   -0.9634 O   0  0  0  0  0  0  0  0  0  0  0  0
   -2.2718   -1.7221   -2.9717 C   0  0  1  0  0  0  0  0  0  0  0  0
   -3.5181   -1.6712   -2.1071 C   0  0  0  0  0  0  0  0  0  0  0  0
   -4.1107   -0.5700   -1.7594 C   0  0  0  0  0  0  0  0  0  0  0  0
   -4.0197   -2.9797   -1.5526 C   0  0  0  0  0  0  0  0  0  0  0  0
   -2.1120   -0.7505   -3.8626 O   0  0  0  0  0  0  0  0  0  0  0  0
    3.1129    2.0144    3.7097 C   0  0  0  0  0  0  0  0  0  0  0  0
   -5.1318    2.4170   -2.6210 H   0  0  0  0  0  0  0  0  0  0  0  0
   -5.9678    1.1261   -1.7178 H   0  0  0  0  0  0  0  0  0  0  0  0
   -5.4856    0.8962   -3.4854 H   0  0  0  0  0  0  0  0  0  0  0  0
   -3.2163    1.0859   -2.9030 H   0  0  0  0  0  0  0  0  0  0  0  0
   -4.1401    1.0124    0.0140 H   0  0  0  0  0  0  0  0  0  0  0  0
   -4.1481    2.6164   -0.8723 H   0  0  0  0  0  0  0  0  0  0  0  0
   -1.6047    2.4329   -0.9933 H   0  0  0  0  0  0  0  0  0  0  0  0
   -2.2834    1.0486    1.6195 H   0  0  0  0  0  0  0  0  0  0  0  0
    0.1241    2.3801    0.2300 H   0  0  0  0  0  0  0  0  0  0  0  0
   -1.0149    3.4003    2.6345 H   0  0  0  0  0  0  0  0  0  0  0  0
    1.9308    4.4788    4.3639 H   0  0  0  0  0  0  0  0  0  0  0  0
    1.3459    2.8733    4.9371 H   0  0  0  0  0  0  0  0  0  0  0  0
    0.1385    4.1161    4.4661 H   0  0  0  0  0  0  0  0  0  0  0  0
    2.9578    2.8829    1.8243 H   0  0  0  0  0  0  0  0  0  0  0  0
    2.4713    1.1475    0.6626 H   0  0  0  0  0  0  0  0  0  0  0  0
    1.3821   -1.8177    3.3564 H   0  0  0  0  0  0  0  0  0  0  0  0
    3.1745    0.0779    3.2834 H   0  0  0  0  0  0  0  0  0  0  0  0
    3.9233   -1.8069    2.3498 H   0  0  0  0  0  0  0  0  0  0  0  0
    4.4106   -0.4412    1.3185 H   0  0  0  0  0  0  0  0  0  0  0  0
    2.4826   -3.7102    1.3892 H   0  0  0  0  0  0  0  0  0  0  0  0
    1.8236   -4.4639   -0.9574 H   0  0  0  0  0  0  0  0  0  0  0  0
    3.7723    0.4737   -1.0801 H   0  0  0  0  0  0  0  0  0  0  0  0
    3.4389    0.5998   -3.5444 H   0  0  0  0  0  0  0  0  0  0  0  0
    2.5105   -1.2769   -4.7705 H   0  0  0  0  0  0  0  0  0  0  0  0
    1.8650   -3.3644   -3.5043 H   0  0  0  0  0  0  0  0  0  0  0  0
    0.6782    1.1365   -1.1113 H   0  0  0  0  0  0  0  0  0  0  0  0
   -0.4632    0.1797   -2.9027 H   0  0  0  0  0  0  0  0  0  0  0  0
   -2.0958   -2.7175   -3.3396 H   0  0  0  0  0  0  0  0  0  0  0  0
   -5.0154   -0.7262   -1.1016 H   0  0  0  0  0  0  0  0  0  0  0  0
   -3.1792   -3.5688   -1.1796 H   0  0  0  0  0  0  0  0  0  0  0  0
   -4.7621   -2.8258   -0.7632 H   0  0  0  0  0  0  0  0  0  0  0  0
   -4.4131   -3.5790   -2.4268 H   0  0  0  0  0  0  0  0  0  0  0  0
   -2.4408   -0.9434   -4.7826 H   0  0  0  0  0  0  0  0  0  0  0  0
    3.2626    3.0570    4.1615 H   0  0  0  0  0  0  0  0  0  0  0  0
    2.6615    1.4402    4.5103 H   0  0  0  0  0  0  0  0  0  0  0  0
    4.1405    1.7052    3.4719 H   0  0  0  0  0  0  0  0  0  0  0  0
  1  2  1  0
  2  3  1  0
  3  4  1  0
  4  5  2  0
  5  6  1  0
  6  7  1  0
  7  8  1  0
  8  9  1  0
  9 10  1  1
  9 11  1  0
 11 12  1  0
 12 13  1  0
 13 14  1  1
 14 15  2  0
 14 16  1  0
 16 17  1  0
 17 18  1  0
 18 19  1  0
 19 20  2  0
 20 21  1  0
 21 22  1  0
 22 23  2  0
 23 24  1  0
 24 25  2  0
 25 26  1  0
 26 27  2  0
 13 28  1  0
 28 29  2  0
 28 30  1  0
 30 31  2  0
 31 32  1  0
 32 33  2  0
 32 34  1  0
 34 35  1  0
 35 36  2  0
 35 37  1  0
 34 38  1  0
 11 39  1  0
 36  2  1  0
 13  6  1  0
 23 19  1  0
  9  7  1  0
 17 12  1  0
 27 22  1  0
  1 40  1  0
  1 41  1  0
  1 42  1  0
  2 43  1  6
  3 44  1  0
  3 45  1  0
  4 46  1  0
  5 47  1  0
  6 48  1  6
  7 49  1  1
 10 50  1  0
 10 51  1  0
 10 52  1  0
 11 53  1  6
 12 54  1  6
 16 55  1  0
 17 56  1  1
 18 57  1  0
 18 58  1  0
 20 59  1  0
 21 60  1  0
 24 61  1  0
 25 62  1  0
 26 63  1  0
 27 64  1  0
 30 65  1  0
 31 66  1  0
 34 67  1  6
 36 68  1  0
 37 69  1  0
 37 70  1  0
 37 71  1  0
 38 72  1  0
 39 73  1  0
 39 74  1  0
 39 75  1  0
M  END
>  <Ligand ID>  (1) 
LIG0005479

>  <Ligand>  (1) 
SCHEMBL33583

>  <SMILES>  (1) 
C[C@H]1C/C=C/[C@H]2[C@@H]3O[C@]3(C)[C@H]([C@@H]3[C@]2(C(=O)N[C@H]3Cc2c[nH]c3c2cccc3)C(=O)/C=C\C(=O)[C@@H](/C(=C\1)/C)O)C

>  <CID>  (1) 
44634614.0

>  <ChEMBL ID>  (1) 
nan

>  <InChiKey>  (1) 
OUMWCYMRLMEZJH-HPXKREMXSA-N

>  <InChi>  (1) 
InChI=1S/C32H36N2O5/c1-17-8-7-10-22-29-31(4,39-29)19(3)27-24(15-20-16-33-23-11-6-5-9-21(20)23)34-30(38)32(22,27)26(36)13-12-25(35)28(37)18(2)14-17/h5-7,9-14,16-17,19,22,24,27-29,33,37H,8,15H2,1-4H3,(H,34,38)/b10-7+,13-12-,18-14-/t17-,19-,22-,24-,27-,28+,29-,31+,32+/m0/s1

>  <IUPAC Name>  (1) 
(1R,3Z,6R,7Z,9S,11E,13R,14S,16R,17S,18R,19S)-6-hydroxy-19-(1H-indol-3-ylmethyl)-7,9,16,17-tetramethyl-15-oxa-20-azatetracyclo[11.8.0.01,18.014,16]henicosa-3,7,11-triene-2,5,21-trione

$$$$
