
     RDKit          3D

 56 60  0  0  0  0  0  0  0  0999 V2000
   -2.0588   -1.4037    5.2525 Cl  0  0  0  0  0  0  0  0  0  0  0  0
   -2.3109   -0.8800    3.6059 C   0  0  0  0  0  0  0  0  0  0  0  0
   -2.8566   -1.6861    2.6290 C   0  0  0  0  0  0  0  0  0  0  0  0
   -3.0322   -1.2127    1.3380 C   0  0  0  0  0  0  0  0  0  0  0  0
   -2.6793    0.0631    0.9641 C   0  0  0  0  0  0  0  0  0  0  0  0
   -2.1291    0.8613    1.9688 C   0  0  0  0  0  0  0  0  0  0  0  0
   -1.9485    0.4048    3.2563 C   0  0  0  0  0  0  0  0  0  0  0  0
   -2.8580    0.5998   -0.4125 C   0  0  0  0  0  0  0  0  0  0  0  0
   -1.6971    0.3954   -1.2939 C   0  0  0  0  0  0  0  0  0  0  0  0
   -1.7791    0.1130   -2.6407 C   0  0  0  0  0  0  0  0  0  0  0  0
   -0.6589   -0.0870   -3.4364 C   0  0  0  0  0  0  0  0  0  0  0  0
    0.5921    0.0047   -2.8369 C   0  0  0  0  0  0  0  0  0  0  0  0
    0.7266    0.2860   -1.4907 C   0  0  0  0  0  0  0  0  0  0  0  0
   -0.4179    0.4747   -0.7504 C   0  0  0  0  0  0  0  0  0  0  0  0
    2.0005    0.3637   -0.9514 C   0  0  0  0  0  0  0  0  0  0  0  0
    2.1753    0.6313    0.4324 N   0  0  0  0  0  0  0  0  0  0  0  0
    3.4659    0.6291    1.0654 C   0  0  0  0  0  0  0  0  0  0  0  0
    4.3771   -0.3857    0.8966 C   0  0  0  0  0  0  0  0  0  0  0  0
    5.6256   -0.3538    1.5032 C   0  0  0  0  0  0  0  0  0  0  0  0
    5.9712    0.7185    2.2984 C   0  0  0  0  0  0  0  0  0  0  0  0
    5.0691    1.7570    2.4864 C   0  0  0  0  0  0  0  0  0  0  0  0
    3.8329    1.7036    1.8725 C   0  0  0  0  0  0  0  0  0  0  0  0
    7.3158    0.6966    2.9184 C   0  0  0  0  0  0  0  0  0  0  0  0
    7.5491    1.8226    3.6822 F   0  0  0  0  0  0  0  0  0  0  0  0
    7.5155   -0.4263    3.6881 F   0  0  0  0  0  0  0  0  0  0  0  0
    8.3327    0.6610    1.9570 F   0  0  0  0  0  0  0  0  0  0  0  0
    3.0506    0.1552   -1.7961 C   0  0  0  0  0  0  0  0  0  0  0  0
    2.8886   -0.1290   -3.1584 C   0  0  0  0  0  0  0  0  0  0  0  0
    3.8860   -0.3148   -3.9004 O   0  0  0  0  0  0  0  0  0  0  0  0
    1.6445   -0.1990   -3.6557 N   0  0  0  0  0  0  0  0  0  0  0  0
   -4.0835    0.0248   -1.0299 C   0  0  0  0  0  0  0  0  0  0  0  0
   -4.1367   -1.1929   -1.6490 C   0  0  0  0  0  0  0  0  0  0  0  0
   -5.2797   -1.7247   -2.2163 C   0  0  0  0  0  0  0  0  0  0  0  0
   -6.4554   -0.9863   -2.1613 C   0  0  0  0  0  0  0  0  0  0  0  0
   -6.4456    0.2499   -1.5447 C   0  0  0  0  0  0  0  0  0  0  0  0
   -5.2813    0.7468   -0.9890 C   0  0  0  0  0  0  0  0  0  0  0  0
   -7.9021   -1.6682   -2.8836 Cl  0  0  0  0  0  0  0  0  0  0  0  0
   -3.1348   -2.6902    2.9212 H   0  0  0  0  0  0  0  0  0  0  0  0
   -3.4633   -1.8934    0.6336 H   0  0  0  0  0  0  0  0  0  0  0  0
   -1.8177    1.8948    1.7634 H   0  0  0  0  0  0  0  0  0  0  0  0
   -1.5185    1.0608    3.9984 H   0  0  0  0  0  0  0  0  0  0  0  0
   -3.0398    1.7102   -0.2914 H   0  0  0  0  0  0  0  0  0  0  0  0
   -2.7260    0.0466   -3.1367 H   0  0  0  0  0  0  0  0  0  0  0  0
   -0.7676   -0.3071   -4.4902 H   0  0  0  0  0  0  0  0  0  0  0  0
   -0.3577    0.6926    0.2880 H   0  0  0  0  0  0  0  0  0  0  0  0
    1.3882    0.8495    1.0865 H   0  0  0  0  0  0  0  0  0  0  0  0
    4.1668   -1.2616    0.3023 H   0  0  0  0  0  0  0  0  0  0  0  0
    6.3307   -1.1760    1.3501 H   0  0  0  0  0  0  0  0  0  0  0  0
    5.3875    2.5745    3.1189 H   0  0  0  0  0  0  0  0  0  0  0  0
    3.1658    2.5282    2.0449 H   0  0  0  0  0  0  0  0  0  0  0  0
    4.0804    0.2103   -1.4733 H   0  0  0  0  0  0  0  0  0  0  0  0
    1.5166   -0.4120   -4.6775 H   0  0  0  0  0  0  0  0  0  0  0  0
   -3.2445   -1.8050   -1.7213 H   0  0  0  0  0  0  0  0  0  0  0  0
   -5.2561   -2.6928   -2.6910 H   0  0  0  0  0  0  0  0  0  0  0  0
   -7.3855    0.7923   -1.5246 H   0  0  0  0  0  0  0  0  0  0  0  0
   -5.3332    1.7214   -0.5187 H   0  0  0  0  0  0  0  0  0  0  0  0
  1  2  1  0
  2  3  2  0
  3  4  1  0
  4  5  2  0
  5  6  1  0
  6  7  2  0
  5  8  1  0
  8  9  1  0
  9 10  2  0
 10 11  1  0
 11 12  2  0
 12 13  1  0
 13 14  2  0
 13 15  1  0
 15 16  1  0
 16 17  1  0
 17 18  2  0
 18 19  1  0
 19 20  2  0
 20 21  1  0
 21 22  2  0
 20 23  1  0
 23 24  1  0
 23 25  1  0
 23 26  1  0
 15 27  2  0
 27 28  1  0
 28 29  2  0
 28 30  1  0
  8 31  1  0
 31 32  2  0
 32 33  1  0
 33 34  2  0
 34 35  1  0
 35 36  2  0
 34 37  1  0
  7  2  1  0
 14  9  1  0
 22 17  1  0
 36 31  1  0
 30 12  1  0
  3 38  1  0
  4 39  1  0
  6 40  1  0
  7 41  1  0
  8 42  1  0
 10 43  1  0
 11 44  1  0
 14 45  1  0
 16 46  1  0
 18 47  1  0
 19 48  1  0
 21 49  1  0
 22 50  1  0
 27 51  1  0
 30 52  1  0
 32 53  1  0
 33 54  1  0
 35 55  1  0
 36 56  1  0
M  END
>  <Ligand ID>  (1) 
LIG0005895

>  <Ligand>  (1) 
CHEMBL3909066

>  <SMILES>  (1) 
Clc1ccc(cc1)C(c1ccc2c(c1)c(Nc1ccc(cc1)C(F)(F)F)cc(=O)[nH]2)c1ccc(cc1)Cl

>  <CID>  (1) 
118324026.0

>  <ChEMBL ID>  (1) 
nan

>  <InChiKey>  (1) 
PTLZJHQZYZQFFG-UHFFFAOYSA-N

>  <InChi>  (1) 
InChI=1S/C29H19Cl2F3N2O/c30-21-8-1-17(2-9-21)28(18-3-10-22(31)11-4-18)19-5-14-25-24(15-19)26(16-27(37)36-25)35-23-12-6-20(7-13-23)29(32,33)34/h1-16,28H,(H2,35,36,37)

>  <IUPAC Name>  (1) 
6-[bis(4-chlorophenyl)methyl]-4-[4-(trifluoromethyl)anilino]-1H-quinolin-2-one

$$$$
