
     RDKit          3D

 63 66  0  0  0  0  0  0  0  0999 V2000
   -1.2832   -2.7230   -0.8727 O   0  0  0  0  0  0  0  0  0  0  0  0
   -1.0978   -1.8828    0.0760 C   0  0  0  0  0  0  0  0  0  0  0  0
   -2.2639   -1.0918    0.4841 C   0  0  2  0  0  0  0  0  0  0  0  0
   -2.7926   -0.2071   -0.5885 C   0  0  0  0  0  0  0  0  0  0  0  0
   -3.9500    0.5739   -0.1266 C   0  0  0  0  0  0  0  0  0  0  0  0
   -3.8670    1.7448    0.5961 C   0  0  0  0  0  0  0  0  0  0  0  0
   -2.5784    2.4085    0.9346 C   0  0  0  0  0  0  0  0  0  0  0  0
   -5.0134    2.3978    1.0217 C   0  0  0  0  0  0  0  0  0  0  0  0
   -6.2771    1.9265    0.7525 C   0  0  0  0  0  0  0  0  0  0  0  0
   -6.3638    0.7563    0.0285 C   0  0  0  0  0  0  0  0  0  0  0  0
   -5.2303    0.0745   -0.4142 C   0  0  0  0  0  0  0  0  0  0  0  0
   -5.4113   -1.1761   -1.1982 C   0  0  0  0  0  0  0  0  0  0  0  0
   -7.4019    2.6034    1.1930 O   0  0  0  0  0  0  0  0  0  0  0  0
   -1.9483   -0.3240    1.6592 N   0  0  0  0  0  0  0  0  0  0  0  0
    0.1965   -1.8185    0.6099 N   0  0  0  0  0  0  0  0  0  0  0  0
    1.2538   -2.6574    0.1152 C   0  0  2  0  0  0  0  0  0  0  0  0
    1.8647   -3.5722    1.1206 C   0  0  0  0  0  0  0  0  0  0  0  0
    2.7220   -4.5972    0.4022 C   0  0  0  0  0  0  0  0  0  0  0  0
    3.7179   -3.9450   -0.4413 N   0  0  0  0  0  0  0  0  0  0  0  0
    3.5331   -2.5712   -0.7895 C   0  0  0  0  0  0  0  0  0  0  0  0
    2.3573   -1.8907   -0.5431 C   0  0  0  0  0  0  0  0  0  0  0  0
    2.2258   -0.5623   -0.8972 C   0  0  0  0  0  0  0  0  0  0  0  0
    3.2866    0.0951   -1.5069 C   0  0  0  0  0  0  0  0  0  0  0  0
    4.4876   -0.5650   -1.7693 C   0  0  0  0  0  0  0  0  0  0  0  0
    4.5935   -1.9042   -1.4020 C   0  0  0  0  0  0  0  0  0  0  0  0
    3.1252    1.5436   -1.8854 C   0  0  0  0  0  0  0  0  0  0  0  0
    3.5780    2.4159   -0.7470 C   0  0  0  0  0  0  0  0  0  0  0  0
    4.9182    2.7806   -0.7615 C   0  0  0  0  0  0  0  0  0  0  0  0
    5.4225    3.5803    0.2447 C   0  0  0  0  0  0  0  0  0  0  0  0
    4.5639    4.0073    1.2628 C   0  0  0  0  0  0  0  0  0  0  0  0
    3.2232    3.6359    1.2672 C   0  0  0  0  0  0  0  0  0  0  0  0
    2.7139    2.8256    0.2470 C   0  0  0  0  0  0  0  0  0  0  0  0
   -3.1191   -1.7500    0.7983 H   0  0  0  0  0  0  0  0  0  0  0  0
   -3.1068   -0.7585   -1.5022 H   0  0  0  0  0  0  0  0  0  0  0  0
   -1.9874    0.4879   -0.9152 H   0  0  0  0  0  0  0  0  0  0  0  0
   -2.3415    2.3875    2.0174 H   0  0  0  0  0  0  0  0  0  0  0  0
   -2.7136    3.5103    0.6831 H   0  0  0  0  0  0  0  0  0  0  0  0
   -1.7441    2.0736    0.2981 H   0  0  0  0  0  0  0  0  0  0  0  0
   -4.9538    3.3207    1.5921 H   0  0  0  0  0  0  0  0  0  0  0  0
   -7.3461    0.3636   -0.1976 H   0  0  0  0  0  0  0  0  0  0  0  0
   -4.7525   -1.9930   -0.9126 H   0  0  0  0  0  0  0  0  0  0  0  0
   -6.4658   -1.4978   -1.0839 H   0  0  0  0  0  0  0  0  0  0  0  0
   -5.2957   -0.9241   -2.2771 H   0  0  0  0  0  0  0  0  0  0  0  0
   -8.2211    2.0681    1.4380 H   0  0  0  0  0  0  0  0  0  0  0  0
   -2.8287   -0.1090    2.2150 H   0  0  0  0  0  0  0  0  0  0  0  0
   -1.3010   -0.8892    2.2766 H   0  0  0  0  0  0  0  0  0  0  0  0
    0.4280   -1.1559    1.3771 H   0  0  0  0  0  0  0  0  0  0  0  0
    0.8373   -3.3083   -0.7081 H   0  0  0  0  0  0  0  0  0  0  0  0
    1.0499   -4.1345    1.6177 H   0  0  0  0  0  0  0  0  0  0  0  0
    2.5293   -3.0517    1.8333 H   0  0  0  0  0  0  0  0  0  0  0  0
    2.1110   -5.3155   -0.1604 H   0  0  0  0  0  0  0  0  0  0  0  0
    3.2818   -5.1620    1.1779 H   0  0  0  0  0  0  0  0  0  0  0  0
    4.5356   -4.5080   -0.7634 H   0  0  0  0  0  0  0  0  0  0  0  0
    1.3021   -0.0618   -0.6935 H   0  0  0  0  0  0  0  0  0  0  0  0
    5.3040   -0.0375   -2.2449 H   0  0  0  0  0  0  0  0  0  0  0  0
    5.5020   -2.4592   -1.5835 H   0  0  0  0  0  0  0  0  0  0  0  0
    2.0566    1.7868   -2.0467 H   0  0  0  0  0  0  0  0  0  0  0  0
    3.6693    1.7702   -2.8083 H   0  0  0  0  0  0  0  0  0  0  0  0
    5.5807    2.4418   -1.5613 H   0  0  0  0  0  0  0  0  0  0  0  0
    6.4809    3.8743    0.2422 H   0  0  0  0  0  0  0  0  0  0  0  0
    4.9596    4.6445    2.0675 H   0  0  0  0  0  0  0  0  0  0  0  0
    2.5694    3.9829    2.0751 H   0  0  0  0  0  0  0  0  0  0  0  0
    1.6749    2.5223    0.2260 H   0  0  0  0  0  0  0  0  0  0  0  0
  1  2  2  0
  2  3  1  0
  3  4  1  0
  4  5  1  0
  5  6  2  0
  6  7  1  0
  6  8  1  0
  8  9  2  0
  9 10  1  0
 10 11  2  0
 11 12  1  0
  9 13  1  0
  3 14  1  0
  2 15  1  0
 15 16  1  0
 16 17  1  0
 17 18  1  0
 18 19  1  0
 19 20  1  0
 20 21  2  0
 21 22  1  0
 22 23  2  0
 23 24  1  0
 24 25  2  0
 23 26  1  0
 26 27  1  0
 27 28  2  0
 28 29  1  0
 29 30  2  0
 30 31  1  0
 31 32  2  0
 11  5  1  0
 21 16  1  0
 32 27  1  0
 25 20  1  0
  3 33  1  1
  4 34  1  0
  4 35  1  0
  7 36  1  0
  7 37  1  0
  7 38  1  0
  8 39  1  0
 10 40  1  0
 12 41  1  0
 12 42  1  0
 12 43  1  0
 13 44  1  0
 14 45  1  0
 14 46  1  0
 15 47  1  0
 16 48  1  6
 17 49  1  0
 17 50  1  0
 18 51  1  0
 18 52  1  0
 19 53  1  0
 22 54  1  0
 24 55  1  0
 25 56  1  0
 26 57  1  0
 26 58  1  0
 28 59  1  0
 29 60  1  0
 30 61  1  0
 31 62  1  0
 32 63  1  0
M  END
>  <Ligand ID>  (1) 
LIG0003761

>  <Ligand>  (1) 
CHEMBL2322568

>  <SMILES>  (1) 
O=C([C@H](Cc1c(C)cc(cc1C)O)N)N[C@@H]1CCNc2c1cc(cc2)Cc1ccccc1

>  <CID>  (1) 
10320450.0

>  <ChEMBL ID>  (1) 
nan

>  <InChiKey>  (1) 
VTFUYBNMSGPAQU-AZGAKELHSA-N

>  <InChi>  (1) 
InChI=1S/C27H31N3O2/c1-17-12-21(31)13-18(2)22(17)16-24(28)27(32)30-26-10-11-29-25-9-8-20(15-23(25)26)14-19-6-4-3-5-7-19/h3-9,12-13,15,24,26,29,31H,10-11,14,16,28H2,1-2H3,(H,30,32)/t24-,26+/m0/s1

>  <IUPAC Name>  (1) 
(2S)-2-amino-N-[(4R)-6-benzyl-1,2,3,4-tetrahydroquinolin-4-yl]-3-(4-hydroxy-2,6-dimethylphenyl)propanamide

$$$$
