
     RDKit          3D

 27 28  0  0  0  0  0  0  0  0999 V2000
   -2.7089    0.3406    1.5945 C   0  0  0  0  0  0  0  0  0  0  0  0
   -2.3065    0.4485    0.1655 C   0  0  1  0  0  0  0  0  0  0  0  0
   -1.4824   -0.6787   -0.3550 C   0  0  0  0  0  0  0  0  0  0  0  0
   -0.2349   -0.8976    0.3026 N   0  0  0  0  0  0  0  0  0  0  0  0
   -0.0847   -1.7068    1.3604 N   0  0  0  0  0  0  0  0  0  0  0  0
    1.2036   -1.7003    1.7489 C   0  0  0  0  0  0  0  0  0  0  0  0
    1.8968   -0.8665    0.9199 C   0  0  0  0  0  0  0  0  0  0  0  0
    0.9808   -0.3659    0.0122 C   0  0  0  0  0  0  0  0  0  0  0  0
    1.3313    0.5197   -0.9870 C   0  0  0  0  0  0  0  0  0  0  0  0
    2.6579    0.8998   -1.0539 C   0  0  0  0  0  0  0  0  0  0  0  0
    3.0240    1.7955   -2.0608 O   0  0  0  0  0  0  0  0  0  0  0  0
    3.5844    0.4003   -0.1442 C   0  0  0  0  0  0  0  0  0  0  0  0
    3.2114   -0.4883    0.8519 C   0  0  0  0  0  0  0  0  0  0  0  0
   -3.5212    0.4738   -0.6628 N   0  0  0  0  0  0  0  0  0  0  0  0
   -3.7586    0.7434    1.7011 H   0  0  0  0  0  0  0  0  0  0  0  0
   -2.1077    0.9982    2.2730 H   0  0  0  0  0  0  0  0  0  0  0  0
   -2.7200   -0.7001    1.9237 H   0  0  0  0  0  0  0  0  0  0  0  0
   -1.8415    1.4461   -0.0013 H   0  0  0  0  0  0  0  0  0  0  0  0
   -1.3683   -0.5028   -1.4579 H   0  0  0  0  0  0  0  0  0  0  0  0
   -2.1206   -1.5964   -0.3025 H   0  0  0  0  0  0  0  0  0  0  0  0
    1.5773   -2.2804    2.5891 H   0  0  0  0  0  0  0  0  0  0  0  0
    0.6222    0.9069   -1.6893 H   0  0  0  0  0  0  0  0  0  0  0  0
    3.0235    2.7843   -1.7663 H   0  0  0  0  0  0  0  0  0  0  0  0
    4.6049    0.7278   -0.2394 H   0  0  0  0  0  0  0  0  0  0  0  0
    3.9293   -0.8724    1.5529 H   0  0  0  0  0  0  0  0  0  0  0  0
   -4.1135   -0.3896   -0.4796 H   0  0  0  0  0  0  0  0  0  0  0  0
   -3.2783    0.5608   -1.6725 H   0  0  0  0  0  0  0  0  0  0  0  0
  1  2  1  0
  2  3  1  0
  3  4  1  0
  4  5  1  0
  5  6  2  0
  6  7  1  0
  7  8  2  0
  8  9  1  0
  9 10  2  0
 10 11  1  0
 10 12  1  0
 12 13  2  0
  2 14  1  0
  8  4  1  0
 13  7  1  0
  1 15  1  0
  1 16  1  0
  1 17  1  0
  2 18  1  1
  3 19  1  0
  3 20  1  0
  6 21  1  0
  9 22  1  0
 11 23  1  0
 12 24  1  0
 13 25  1  0
 14 26  1  0
 14 27  1  0
M  END
>  <Ligand ID>  (1) 
LIG0000579

>  <Ligand>  (1) 
1-((S)-2-aminopropyl)-1H-indazol-6-ol

>  <SMILES>  (1) 
C[C@@H](Cn1ncc2c1cc(O)cc2)N

>  <CID>  (1) 
135453290.0

>  <ChEMBL ID>  (1) 
nan

>  <InChiKey>  (1) 
WBYHTZYHAFNBKW-ZETCQYMHSA-N

>  <InChi>  (1) 
InChI=1S/C10H13N3O/c1-7(11)6-13-10-4-9(14)3-2-8(10)5-12-13/h2-5,7,14H,6,11H2,1H3/t7-/m0/s1

>  <IUPAC Name>  (1) 
1-[(2S)-2-aminopropyl]indazol-6-ol

$$$$
