
     RDKit          3D

 34 36  0  0  0  0  0  0  0  0999 V2000
    2.2142    2.8871    0.8288 F   0  0  0  0  0  0  0  0  0  0  0  0
    2.9350    1.7414    1.1763 C   0  0  0  0  0  0  0  0  0  0  0  0
    2.5221    0.5831    0.3349 C   0  0  0  0  0  0  0  0  0  0  0  0
    3.4520   -0.1170   -0.4368 C   0  0  0  0  0  0  0  0  0  0  0  0
    3.0717   -1.1885   -1.2156 C   0  0  0  0  0  0  0  0  0  0  0  0
    1.7354   -1.5926   -1.2432 C   0  0  0  0  0  0  0  0  0  0  0  0
    0.7852   -0.9049   -0.4769 C   0  0  0  0  0  0  0  0  0  0  0  0
    1.1982    0.1638    0.2923 C   0  0  0  0  0  0  0  0  0  0  0  0
   -0.5960   -1.3650   -0.5359 C   0  0  1  0  0  0  0  0  0  0  0  0
   -0.9965   -1.8275    0.8512 C   0  0  0  0  0  0  0  0  0  0  0  0
   -1.9110   -0.7562    1.4029 C   0  0  0  0  0  0  0  0  0  0  0  0
   -2.4420   -0.0094    0.2263 C   0  0  2  0  0  0  0  0  0  0  0  0
   -1.6296   -0.4197   -0.9866 C   0  0  1  0  0  0  0  0  0  0  0  0
   -1.2082    0.8509   -1.6137 C   0  0  0  0  0  0  0  0  0  0  0  0
   -2.1003    1.8546   -1.0461 N   0  0  0  0  0  0  0  0  0  0  0  0
   -2.3526    1.4781    0.3252 C   0  0  0  0  0  0  0  0  0  0  0  0
    2.7348    1.5245    2.5073 F   0  0  0  0  0  0  0  0  0  0  0  0
    4.2512    2.0333    0.8714 F   0  0  0  0  0  0  0  0  0  0  0  0
    4.4815    0.1642   -0.4398 H   0  0  0  0  0  0  0  0  0  0  0  0
    3.8098   -1.7154   -1.8049 H   0  0  0  0  0  0  0  0  0  0  0  0
    1.4580   -2.4367   -1.8616 H   0  0  0  0  0  0  0  0  0  0  0  0
    0.4983    0.7131    0.8913 H   0  0  0  0  0  0  0  0  0  0  0  0
   -0.6705   -2.2769   -1.1991 H   0  0  0  0  0  0  0  0  0  0  0  0
   -0.1291   -1.9239    1.5311 H   0  0  0  0  0  0  0  0  0  0  0  0
   -1.5610   -2.7776    0.8531 H   0  0  0  0  0  0  0  0  0  0  0  0
   -1.4240   -0.0617    2.0982 H   0  0  0  0  0  0  0  0  0  0  0  0
   -2.7354   -1.2340    2.0076 H   0  0  0  0  0  0  0  0  0  0  0  0
   -3.5299   -0.2909    0.1192 H   0  0  0  0  0  0  0  0  0  0  0  0
   -2.3650   -0.8949   -1.7033 H   0  0  0  0  0  0  0  0  0  0  0  0
   -0.1986    1.2042   -1.4391 H   0  0  0  0  0  0  0  0  0  0  0  0
   -1.3820    0.8900   -2.7165 H   0  0  0  0  0  0  0  0  0  0  0  0
   -2.9891    1.9643   -1.5546 H   0  0  0  0  0  0  0  0  0  0  0  0
   -1.6018    1.8582    1.0454 H   0  0  0  0  0  0  0  0  0  0  0  0
   -3.3249    1.8817    0.6738 H   0  0  0  0  0  0  0  0  0  0  0  0
  1  2  1  0
  2  3  1  0
  3  4  2  0
  4  5  1  0
  5  6  2  0
  6  7  1  0
  7  8  2  0
  7  9  1  0
  9 10  1  0
 10 11  1  0
 11 12  1  0
 12 13  1  0
 13 14  1  0
 14 15  1  0
 15 16  1  0
  2 17  1  0
  2 18  1  0
  8  3  1  0
 13  9  1  0
 16 12  1  0
  4 19  1  0
  5 20  1  0
  6 21  1  0
  8 22  1  0
  9 23  1  6
 10 24  1  0
 10 25  1  0
 11 26  1  0
 11 27  1  0
 12 28  1  6
 13 29  1  6
 14 30  1  0
 14 31  1  0
 15 32  1  0
 16 33  1  0
 16 34  1  0
M  END
>  <Ligand ID>  (1) 
LIG0002890

>  <Ligand>  (1) 
CHEMBL209155

>  <SMILES>  (1) 
FC(c1cccc(c1)[C@H]1CC[C@@H]2[C@H]1CNC2)(F)F

>  <CID>  (1) 
44412405.0

>  <ChEMBL ID>  (1) 
nan

>  <InChiKey>  (1) 
SFVFRPBFBCBTST-CYZMBNFOSA-N

>  <InChi>  (1) 
InChI=1S/C14H16F3N/c15-14(16,17)11-3-1-2-9(6-11)12-5-4-10-7-18-8-13(10)12/h1-3,6,10,12-13,18H,4-5,7-8H2/t10-,12+,13+/m0/s1

>  <IUPAC Name>  (1) 
(3aS,4S,6aR)-4-[3-(trifluoromethyl)phenyl]-1,2,3,3a,4,5,6,6a-octahydrocyclopenta[c]pyrrole

$$$$
