
     RDKit          3D

128129  0  0  0  0  0  0  0  0999 V2000
  -11.0590    3.4222   -0.3999 C   0  0  0  0  0  0  0  0  0  0  0  0
  -10.3704    2.6595   -1.4912 C   0  0  0  0  0  0  0  0  0  0  0  0
   -9.0521    3.2004   -1.9263 C   0  0  0  0  0  0  0  0  0  0  0  0
   -7.9886    3.2680   -0.8914 C   0  0  1  0  0  0  0  0  0  0  0  0
   -8.2753    4.0992    0.2828 C   0  0  0  0  0  0  0  0  0  0  0  0
   -8.5996    5.3337    0.1943 O   0  0  0  0  0  0  0  0  0  0  0  0
   -8.2193    3.6170    1.6038 O   0  0  0  0  0  0  0  0  0  0  0  0
   -7.6526    1.8822   -0.5300 N   0  0  0  0  0  0  0  0  0  0  0  0
   -6.3825    1.3244   -0.6604 C   0  0  0  0  0  0  0  0  0  0  0  0
   -5.4732    2.1193   -1.1349 O   0  0  0  0  0  0  0  0  0  0  0  0
   -5.9171   -0.0258   -0.3454 C   0  0  2  0  0  0  0  0  0  0  0  0
   -6.1930   -0.5227    1.0578 C   0  0  0  0  0  0  0  0  0  0  0  0
   -5.7069   -1.9541    1.1687 C   0  0  0  0  0  0  0  0  0  0  0  0
   -5.7410    0.3720    2.1574 C   0  0  0  0  0  0  0  0  0  0  0  0
   -7.7123   -0.6354    1.2297 C   0  0  0  0  0  0  0  0  0  0  0  0
   -4.5069   -0.1266   -0.7317 N   0  0  0  0  0  0  0  0  0  0  0  0
   -3.3814   -0.4119    0.0020 C   0  0  0  0  0  0  0  0  0  0  0  0
   -3.2814   -0.6522    1.2359 O   0  0  0  0  0  0  0  0  0  0  0  0
   -2.0563   -0.4557   -0.7143 C   0  0  2  0  0  0  0  0  0  0  0  0
   -2.0317   -1.3092   -1.9221 C   0  0  0  0  0  0  0  0  0  0  0  0
   -2.3272   -2.7277   -1.7457 C   0  0  0  0  0  0  0  0  0  0  0  0
   -1.2652   -3.5839   -1.4249 C   0  0  0  0  0  0  0  0  0  0  0  0
   -1.4600   -4.9346   -1.2506 C   0  0  0  0  0  0  0  0  0  0  0  0
   -2.7184   -5.5011   -1.3864 C   0  0  0  0  0  0  0  0  0  0  0  0
   -3.7587   -4.6574   -1.7015 C   0  0  0  0  0  0  0  0  0  0  0  0
   -3.5639   -3.3153   -1.8744 C   0  0  0  0  0  0  0  0  0  0  0  0
   -2.8819   -6.8752   -1.2029 O   0  0  0  0  0  0  0  0  0  0  0  0
   -1.0477   -0.8263    0.2598 N   0  0  0  0  0  0  0  0  0  0  0  0
    0.0085   -0.0053    0.6865 C   0  0  0  0  0  0  0  0  0  0  0  0
    0.2308    1.1614    0.2873 O   0  0  0  0  0  0  0  0  0  0  0  0
    0.9379   -0.6042    1.7113 C   0  0  2  0  0  0  0  0  0  0  0  0
    0.2221   -0.8448    3.0035 C   0  0  0  0  0  0  0  0  0  0  0  0
    0.8150    0.0769    3.9906 C   0  0  0  0  0  0  0  0  0  0  0  0
    1.8036    0.9664    3.2961 C   0  0  0  0  0  0  0  0  0  0  0  0
    2.0449    0.2380    2.0345 N   0  0  0  0  0  0  0  0  0  0  0  0
    3.2673    0.4547    1.3299 C   0  0  0  0  0  0  0  0  0  0  0  0
    4.0572    1.2971    1.8931 O   0  0  0  0  0  0  0  0  0  0  0  0
    3.7063   -0.1447    0.0888 C   0  0  1  0  0  0  0  0  0  0  0  0
    5.0035    0.4633   -0.2798 N   0  0  0  0  0  0  0  0  0  0  0  0
    5.2358    1.0399   -1.5422 C   0  0  0  0  0  0  0  0  0  0  0  0
    4.2372    0.9994   -2.3536 O   0  0  0  0  0  0  0  0  0  0  0  0
    6.5006    1.6605   -1.9803 C   0  0  2  0  0  0  0  0  0  0  0  0
    6.8866    2.9229   -1.3035 C   0  0  0  0  0  0  0  0  0  0  0  0
    7.1111    2.9046    0.1570 C   0  0  0  0  0  0  0  0  0  0  0  0
    8.1746    2.0256    0.6920 C   0  0  0  0  0  0  0  0  0  0  0  0
    9.5143    2.2776    0.2638 N   0  0  0  0  0  0  0  0  0  0  0  0
    9.9104    3.6560    0.2418 C   0  0  0  0  0  0  0  0  0  0  0  0
    9.9071    1.6245   -0.9546 C   0  0  0  0  0  0  0  0  0  0  0  0
   10.3683    1.6554    1.3083 C   0  0  0  0  0  0  0  0  0  0  0  0
    6.3397    1.9994   -3.4719 C   0  0  0  0  0  0  0  0  0  0  0  0
    4.0168   -1.6357    0.1547 C   0  0  0  0  0  0  0  0  0  0  0  0
    5.1015   -1.9707    1.1408 C   0  0  0  0  0  0  0  0  0  0  0  0
    5.3709   -3.4693    1.1798 C   0  0  0  0  0  0  0  0  0  0  0  0
    5.7867   -3.9144   -0.1576 N   0  0  0  0  0  0  0  0  0  0  0  0
    5.3477   -5.0690   -0.5252 C   0  0  0  0  0  0  0  0  0  0  0  0
    4.5160   -5.8295    0.3433 N   0  0  0  0  0  0  0  0  0  0  0  0
    5.6779   -5.6118   -1.8003 N   0  0  0  0  0  0  0  0  0  0  0  0
  -11.3024    2.5705   -2.7058 C   0  0  0  0  0  0  0  0  0  0  0  0
  -10.7124    3.1648    0.6206 H   0  0  0  0  0  0  0  0  0  0  0  0
  -11.0862    4.5210   -0.5636 H   0  0  0  0  0  0  0  0  0  0  0  0
  -12.1376    3.0743   -0.4055 H   0  0  0  0  0  0  0  0  0  0  0  0
  -10.2984    1.6036   -1.1236 H   0  0  0  0  0  0  0  0  0  0  0  0
   -8.6853    2.6056   -2.8127 H   0  0  0  0  0  0  0  0  0  0  0  0
   -9.1532    4.2385   -2.3489 H   0  0  0  0  0  0  0  0  0  0  0  0
   -7.0451    3.6275   -1.4088 H   0  0  0  0  0  0  0  0  0  0  0  0
   -8.3178    4.2544    2.3985 H   0  0  0  0  0  0  0  0  0  0  0  0
   -8.4261    1.3119   -0.1711 H   0  0  0  0  0  0  0  0  0  0  0  0
   -6.4369   -0.7859   -0.9579 H   0  0  0  0  0  0  0  0  0  0  0  0
   -6.6054   -2.6319    1.0264 H   0  0  0  0  0  0  0  0  0  0  0  0
   -5.1819   -2.2135    2.0754 H   0  0  0  0  0  0  0  0  0  0  0  0
   -5.0921   -2.1850    0.2851 H   0  0  0  0  0  0  0  0  0  0  0  0
   -5.3104   -0.2335    2.9887 H   0  0  0  0  0  0  0  0  0  0  0  0
   -5.1105    1.2324    1.8510 H   0  0  0  0  0  0  0  0  0  0  0  0
   -6.6118    0.8920    2.6777 H   0  0  0  0  0  0  0  0  0  0  0  0
   -8.2311   -0.9262    0.3206 H   0  0  0  0  0  0  0  0  0  0  0  0
   -8.0954    0.2299    1.7865 H   0  0  0  0  0  0  0  0  0  0  0  0
   -7.8835   -1.5086    1.9387 H   0  0  0  0  0  0  0  0  0  0  0  0
   -4.3715    0.0625   -1.7868 H   0  0  0  0  0  0  0  0  0  0  0  0
   -1.8473    0.5864   -1.0194 H   0  0  0  0  0  0  0  0  0  0  0  0
   -2.6679   -0.8388   -2.7212 H   0  0  0  0  0  0  0  0  0  0  0  0
   -0.9950   -1.2419   -2.3716 H   0  0  0  0  0  0  0  0  0  0  0  0
   -0.2719   -3.1694   -1.3129 H   0  0  0  0  0  0  0  0  0  0  0  0
   -0.5782   -5.5297   -1.0005 H   0  0  0  0  0  0  0  0  0  0  0  0
   -4.7588   -5.0544   -1.8172 H   0  0  0  0  0  0  0  0  0  0  0  0
   -4.3868   -2.6320   -2.1283 H   0  0  0  0  0  0  0  0  0  0  0  0
   -2.2114   -7.3538   -0.5912 H   0  0  0  0  0  0  0  0  0  0  0  0
   -1.1564   -1.8098    0.6562 H   0  0  0  0  0  0  0  0  0  0  0  0
    1.3074   -1.5920    1.3429 H   0  0  0  0  0  0  0  0  0  0  0  0
    0.2749   -1.9259    3.3159 H   0  0  0  0  0  0  0  0  0  0  0  0
   -0.8800   -0.6407    2.8773 H   0  0  0  0  0  0  0  0  0  0  0  0
    0.0647    0.7362    4.4901 H   0  0  0  0  0  0  0  0  0  0  0  0
    1.2957   -0.5482    4.7845 H   0  0  0  0  0  0  0  0  0  0  0  0
    2.7831    0.9670    3.8529 H   0  0  0  0  0  0  0  0  0  0  0  0
    1.4367    1.9884    3.1262 H   0  0  0  0  0  0  0  0  0  0  0  0
    3.0413    0.0261   -0.7851 H   0  0  0  0  0  0  0  0  0  0  0  0
    5.7328    0.4306    0.4512 H   0  0  0  0  0  0  0  0  0  0  0  0
    7.3234    0.8967   -1.9827 H   0  0  0  0  0  0  0  0  0  0  0  0
    7.6886    3.4823   -1.8737 H   0  0  0  0  0  0  0  0  0  0  0  0
    5.9936    3.6239   -1.4570 H   0  0  0  0  0  0  0  0  0  0  0  0
    7.3476    3.9674    0.4515 H   0  0  0  0  0  0  0  0  0  0  0  0
    6.1478    2.7129    0.6880 H   0  0  0  0  0  0  0  0  0  0  0  0
    8.0130    0.9348    0.5730 H   0  0  0  0  0  0  0  0  0  0  0  0
    8.1687    2.1702    1.8157 H   0  0  0  0  0  0  0  0  0  0  0  0
   10.0678    4.0302    1.2877 H   0  0  0  0  0  0  0  0  0  0  0  0
   10.9341    3.6748   -0.2154 H   0  0  0  0  0  0  0  0  0  0  0  0
    9.2949    4.3303   -0.3526 H   0  0  0  0  0  0  0  0  0  0  0  0
    9.7080    2.2292   -1.8544 H   0  0  0  0  0  0  0  0  0  0  0  0
    9.5514    0.5789   -1.0133 H   0  0  0  0  0  0  0  0  0  0  0  0
   11.0326    1.5254   -0.9328 H   0  0  0  0  0  0  0  0  0  0  0  0
   10.0924    2.0307    2.2996 H   0  0  0  0  0  0  0  0  0  0  0  0
   11.4272    1.7314    1.0634 H   0  0  0  0  0  0  0  0  0  0  0  0
   10.1157    0.5757    1.2773 H   0  0  0  0  0  0  0  0  0  0  0  0
    5.8883    1.1246   -3.9911 H   0  0  0  0  0  0  0  0  0  0  0  0
    7.3211    2.2617   -3.8881 H   0  0  0  0  0  0  0  0  0  0  0  0
    5.6746    2.8860   -3.5462 H   0  0  0  0  0  0  0  0  0  0  0  0
    3.1519   -2.2850    0.1639 H   0  0  0  0  0  0  0  0  0  0  0  0
    4.4953   -1.8336   -0.8685 H   0  0  0  0  0  0  0  0  0  0  0  0
    4.8689   -1.6598    2.1786 H   0  0  0  0  0  0  0  0  0  0  0  0
    6.0681   -1.5104    0.8526 H   0  0  0  0  0  0  0  0  0  0  0  0
    6.2255   -3.6912    1.8499 H   0  0  0  0  0  0  0  0  0  0  0  0
    4.5071   -4.0525    1.5529 H   0  0  0  0  0  0  0  0  0  0  0  0
    4.9033   -6.6526    0.8635 H   0  0  0  0  0  0  0  0  0  0  0  0
    3.5207   -5.5896    0.4799 H   0  0  0  0  0  0  0  0  0  0  0  0
    6.4067   -6.3084   -1.9763 H   0  0  0  0  0  0  0  0  0  0  0  0
    5.1320   -5.2727   -2.6384 H   0  0  0  0  0  0  0  0  0  0  0  0
  -11.7454    3.5820   -2.8312 H   0  0  0  0  0  0  0  0  0  0  0  0
  -10.7608    2.2050   -3.5944 H   0  0  0  0  0  0  0  0  0  0  0  0
  -12.1286    1.8927   -2.4015 H   0  0  0  0  0  0  0  0  0  0  0  0
  1  2  1  0
  2  3  1  0
  3  4  1  0
  4  5  1  0
  5  6  2  0
  5  7  1  0
  4  8  1  0
  8  9  1  0
  9 10  2  0
  9 11  1  0
 11 12  1  0
 12 13  1  0
 12 14  1  0
 12 15  1  0
 11 16  1  0
 16 17  1  0
 17 18  2  0
 17 19  1  0
 19 20  1  0
 20 21  1  0
 21 22  2  0
 22 23  1  0
 23 24  2  0
 24 25  1  0
 25 26  2  0
 24 27  1  0
 19 28  1  0
 28 29  1  0
 29 30  2  0
 29 31  1  0
 31 32  1  0
 32 33  1  0
 33 34  1  0
 34 35  1  0
 35 36  1  0
 36 37  2  0
 36 38  1  0
 38 39  1  0
 39 40  1  0
 40 41  2  0
 40 42  1  0
 42 43  1  0
 43 44  1  0
 44 45  1  0
 45 46  1  0
 46 47  1  0
 46 48  1  0
 46 49  1  0
 42 50  1  0
 38 51  1  0
 51 52  1  0
 52 53  1  0
 53 54  1  0
 54 55  2  3
 55 56  1  0
 55 57  1  0
  2 58  1  0
 26 21  1  0
 35 31  1  0
  1 59  1  0
  1 60  1  0
  1 61  1  0
  2 62  1  0
  3 63  1  0
  3 64  1  0
  4 65  1  6
  7 66  1  0
  8 67  1  0
 11 68  1  6
 13 69  1  0
 13 70  1  0
 13 71  1  0
 14 72  1  0
 14 73  1  0
 14 74  1  0
 15 75  1  0
 15 76  1  0
 15 77  1  0
 16 78  1  0
 19 79  1  6
 20 80  1  0
 20 81  1  0
 22 82  1  0
 23 83  1  0
 25 84  1  0
 26 85  1  0
 27 86  1  0
 28 87  1  0
 31 88  1  6
 32 89  1  0
 32 90  1  0
 33 91  1  0
 33 92  1  0
 34 93  1  0
 34 94  1  0
 38 95  1  6
 39 96  1  0
 42 97  1  6
 43 98  1  0
 43 99  1  0
 44100  1  0
 44101  1  0
 45102  1  0
 45103  1  0
 47104  1  0
 47105  1  0
 47106  1  0
 48107  1  0
 48108  1  0
 48109  1  0
 49110  1  0
 49111  1  0
 49112  1  0
 50113  1  0
 50114  1  0
 50115  1  0
 51116  1  0
 51117  1  0
 52118  1  0
 52119  1  0
 53120  1  0
 53121  1  0
 56122  1  0
 56123  1  0
 57124  1  0
 57125  1  0
 58126  1  0
 58127  1  0
 58128  1  0
M  CHG  1  46   1
M  END
>  <Ligand ID>  (1) 
LIG0002139

>  <Ligand>  (1) 
CHEMBL1172376

>  <SMILES>  (1) 
CC(C[C@@H](C(=O)O)NC(=O)[C@H](C(C)(C)C)NC(=O)[C@H](Cc1ccc(cc1)O)NC(=O)[C@@H]1CCCN1C(=O)[C@@H](NC(=O)[C@H](CCC[N+](C)(C)C)C)CCCN=C(N)N)C

>  <CID>  (1) 
16127648.0

>  <ChEMBL ID>  (1) 
nan

>  <InChiKey>  (1) 
NWPZHWJQSGWXSJ-BJAKLJBYSA-O

>  <InChi>  (1) 
InChI=1S/C41H69N9O8/c1-25(2)23-31(39(57)58)47-37(55)33(41(4,5)6)48-35(53)30(24-27-16-18-28(51)19-17-27)46-36(54)32-15-11-21-49(32)38(56)29(14-10-20-44-40(42)43)45-34(52)26(3)13-12-22-50(7,8)9/h16-19,25-26,29-33H,10-15,20-24H2,1-9H3,(H9-,42,43,44,45,46,47,48,51,52,53,54,55,57,58)/p+1/t26-,29-,30-,31-,32-,33+/m0/s1

>  <IUPAC Name>  (1) 
[(4S)-5-[[(2S)-1-[(2S)-2-[[(2S)-1-[[(2S)-1-[[(1S)-1-carboxy-3-methylbutyl]amino]-3,3-dimethyl-1-oxobutan-2-yl]amino]-3-(4-hydroxyphenyl)-1-oxopropan-2-yl]carbamoyl]pyrrolidin-1-yl]-5-(diaminomethylideneamino)-1-oxopentan-2-yl]amino]-4-methyl-5-oxopentyl]-trimethylazanium

$$$$
