
     RDKit          3D

 30 30  0  0  0  0  0  0  0  0999 V2000
    4.3632    0.0345   -0.2871 N   0  0  0  0  0  0  0  0  0  0  0  0
    3.1988   -0.0288   -1.1738 C   0  0  0  0  0  0  0  0  0  0  0  0
    2.0135   -0.6197   -0.4392 C   0  0  0  0  0  0  0  0  0  0  0  0
    1.6120    0.2025    0.7893 C   0  0  0  0  0  0  0  0  0  0  0  0
    0.7445    0.1019   -0.4829 C   0  0  0  0  0  0  0  0  0  0  0  0
   -0.5724   -0.4741   -0.2301 C   0  0  0  0  0  0  0  0  0  0  0  0
   -1.6084    0.4042    0.1064 C   0  0  0  0  0  0  0  0  0  0  0  0
   -1.3650    1.7458    0.1878 O   0  0  0  0  0  0  0  0  0  0  0  0
   -2.3861    2.6662    0.5252 C   0  0  0  0  0  0  0  0  0  0  0  0
   -2.8885   -0.0897    0.3587 C   0  0  0  0  0  0  0  0  0  0  0  0
   -3.1803   -1.4385    0.2881 C   0  0  0  0  0  0  0  0  0  0  0  0
   -2.1617   -2.3013   -0.0428 C   0  0  0  0  0  0  0  0  0  0  0  0
   -0.8984   -1.8007   -0.2904 C   0  0  0  0  0  0  0  0  0  0  0  0
    0.0637   -2.6802   -0.6099 F   0  0  0  0  0  0  0  0  0  0  0  0
   -2.3892   -3.6305   -0.1266 F   0  0  0  0  0  0  0  0  0  0  0  0
    0.6918    0.0000    0.0000 Cl  0  0  0  0  0  0  0  0  0  0  0  0
    4.5168   -0.8640    0.2215 H   0  0  0  0  0  0  0  0  0  0  0  0
    4.2149    0.7687    0.4435 H   0  0  0  0  0  0  0  0  0  0  0  0
    2.9463    1.0186   -1.4487 H   0  0  0  0  0  0  0  0  0  0  0  0
    3.4390   -0.5509   -2.0994 H   0  0  0  0  0  0  0  0  0  0  0  0
    2.1148   -1.7079   -0.2920 H   0  0  0  0  0  0  0  0  0  0  0  0
    2.0859    1.1671    0.9661 H   0  0  0  0  0  0  0  0  0  0  0  0
    1.3028   -0.3587    1.6809 H   0  0  0  0  0  0  0  0  0  0  0  0
    0.7287    1.0298   -1.1198 H   0  0  0  0  0  0  0  0  0  0  0  0
   -3.1500    2.7928   -0.2499 H   0  0  0  0  0  0  0  0  0  0  0  0
   -1.9704    3.6627    0.7852 H   0  0  0  0  0  0  0  0  0  0  0  0
   -2.8948    2.2390    1.4390 H   0  0  0  0  0  0  0  0  0  0  0  0
   -3.7167    0.5601    0.6223 H   0  0  0  0  0  0  0  0  0  0  0  0
   -4.1631   -1.8488    0.4785 H   0  0  0  0  0  0  0  0  0  0  0  0
   -0.6918    0.0000    0.0000 H   0  0  0  0  0  0  0  0  0  0  0  0
  1  2  1  0
  2  3  1  0
  3  4  1  0
  4  5  1  0
  5  6  1  0
  6  7  2  0
  7  8  1  0
  8  9  1  0
  7 10  1  0
 10 11  2  0
 11 12  1  0
 12 13  2  0
 13 14  1  0
 12 15  1  0
  5  3  1  0
 13  6  1  0
  1 17  1  0
  1 18  1  0
  2 19  1  0
  2 20  1  0
  3 21  1  0
  4 22  1  0
  4 23  1  0
  5 24  1  0
  9 25  1  0
  9 26  1  0
  9 27  1  0
 10 28  1  0
 11 29  1  0
 16 30  1  0
M  END
>  <Ligand ID>  (1) 
LIG0004719

>  <Ligand>  (1) 
CHEMBL3770963

>  <SMILES>  (1) 
NCC1CC1c1c(OC)ccc(c1F)F.Cl

>  <CID>  (1) 
127028088.0

>  <ChEMBL ID>  (1) 
nan

>  <InChiKey>  (1) 
MSCOUTAOTYHWQV-UHFFFAOYSA-N

>  <InChi>  (1) 
InChI=1S/C11H13F2NO.ClH/c1-15-9-3-2-8(12)11(13)10(9)7-4-6(7)5-14;/h2-3,6-7H,4-5,14H2,1H3;1H

>  <IUPAC Name>  (1) 
[2-(2,3-difluoro-6-methoxyphenyl)cyclopropyl]methanamine;hydrochloride

$$$$
