
     RDKit          3D

 48 49  0  0  0  0  0  0  0  0999 V2000
   -1.4756   -1.2211   -0.9860 C   0  0  0  0  0  0  0  0  0  0  0  0
   -1.3812    0.0060   -0.1040 C   0  0  2  0  0  0  0  0  0  0  0  0
   -0.0152    0.6421   -0.4697 C   0  0  0  0  0  0  0  0  0  0  0  0
    0.9759   -0.3746   -0.1702 N   0  0  0  0  0  0  0  0  0  0  0  0
    2.3783   -0.1452   -0.3928 C   0  0  0  0  0  0  0  0  0  0  0  0
    3.3360   -1.0965   -0.1133 C   0  0  0  0  0  0  0  0  0  0  0  0
    4.6851   -0.9037   -0.3220 C   0  0  0  0  0  0  0  0  0  0  0  0
    5.1217    0.3145   -0.8439 C   0  0  0  0  0  0  0  0  0  0  0  0
    4.1760    1.2795   -1.1298 C   0  0  0  0  0  0  0  0  0  0  0  0
    2.8190    1.0697   -0.9136 C   0  0  0  0  0  0  0  0  0  0  0  0
    6.5704    0.4877   -1.0583 C   0  0  0  0  0  0  0  0  0  0  0  0
    7.2776    1.0484    0.0943 C   0  0  0  0  0  0  0  0  0  0  0  0
    6.6892    1.3553    1.1691 O   0  0  0  0  0  0  0  0  0  0  0  0
    8.6404    1.2604    0.0322 O   0  0  0  0  0  0  0  0  0  0  0  0
   -1.3190   -0.2693    1.2703 N   0  0  0  0  0  0  0  0  0  0  0  0
   -2.2929   -1.0380    1.9190 C   0  0  0  0  0  0  0  0  0  0  0  0
   -3.6272   -0.4261    2.0674 C   0  0  1  0  0  0  0  0  0  0  0  0
   -4.3734   -0.0355    0.8860 C   0  0  0  0  0  0  0  0  0  0  0  0
   -4.6504    1.3047    0.5823 C   0  0  0  0  0  0  0  0  0  0  0  0
   -5.3609    1.6631   -0.5446 C   0  0  0  0  0  0  0  0  0  0  0  0
   -5.8271    0.6986   -1.4193 C   0  0  0  0  0  0  0  0  0  0  0  0
   -5.5618   -0.6362   -1.1343 C   0  0  0  0  0  0  0  0  0  0  0  0
   -4.8482   -0.9911   -0.0020 C   0  0  0  0  0  0  0  0  0  0  0  0
   -6.1316   -1.9064   -2.2162 Cl  0  0  0  0  0  0  0  0  0  0  0  0
   -4.4968   -1.3512    2.7484 O   0  0  0  0  0  0  0  0  0  0  0  0
   -1.9143   -2.0579   -0.4034 H   0  0  0  0  0  0  0  0  0  0  0  0
   -2.1376   -0.9675   -1.8392 H   0  0  0  0  0  0  0  0  0  0  0  0
   -0.4900   -1.4654   -1.3997 H   0  0  0  0  0  0  0  0  0  0  0  0
   -2.1028    0.7771   -0.4353 H   0  0  0  0  0  0  0  0  0  0  0  0
   -0.0255    0.9341   -1.5262 H   0  0  0  0  0  0  0  0  0  0  0  0
    0.1775    1.4957    0.2251 H   0  0  0  0  0  0  0  0  0  0  0  0
    0.7390   -1.3196    0.2153 H   0  0  0  0  0  0  0  0  0  0  0  0
    2.9652   -2.0444    0.2960 H   0  0  0  0  0  0  0  0  0  0  0  0
    5.3552   -1.6952   -0.0772 H   0  0  0  0  0  0  0  0  0  0  0  0
    4.5172    2.2392   -1.5406 H   0  0  0  0  0  0  0  0  0  0  0  0
    2.1085    1.8656   -1.1561 H   0  0  0  0  0  0  0  0  0  0  0  0
    6.9796   -0.5157   -1.3522 H   0  0  0  0  0  0  0  0  0  0  0  0
    6.7983    1.1362   -1.9395 H   0  0  0  0  0  0  0  0  0  0  0  0
    9.1519    1.6290    0.8309 H   0  0  0  0  0  0  0  0  0  0  0  0
   -0.3604   -0.3688    1.6057 H   0  0  0  0  0  0  0  0  0  0  0  0
   -1.9106   -1.1642    2.9905 H   0  0  0  0  0  0  0  0  0  0  0  0
   -2.3252   -2.1099    1.5858 H   0  0  0  0  0  0  0  0  0  0  0  0
   -3.5762    0.4369    2.7630 H   0  0  0  0  0  0  0  0  0  0  0  0
   -4.2880    2.0666    1.2639 H   0  0  0  0  0  0  0  0  0  0  0  0
   -5.5415    2.7272   -0.7209 H   0  0  0  0  0  0  0  0  0  0  0  0
   -6.3882    0.9724   -2.3102 H   0  0  0  0  0  0  0  0  0  0  0  0
   -4.6300   -2.0163    0.2399 H   0  0  0  0  0  0  0  0  0  0  0  0
   -4.4102   -1.2199    3.7354 H   0  0  0  0  0  0  0  0  0  0  0  0
  1  2  1  0
  2  3  1  0
  3  4  1  0
  4  5  1  0
  5  6  2  0
  6  7  1  0
  7  8  2  0
  8  9  1  0
  9 10  2  0
  8 11  1  0
 11 12  1  0
 12 13  2  0
 12 14  1  0
  2 15  1  0
 15 16  1  0
 16 17  1  0
 17 18  1  0
 18 19  2  0
 19 20  1  0
 20 21  2  0
 21 22  1  0
 22 23  2  0
 22 24  1  0
 17 25  1  0
 10  5  1  0
 23 18  1  0
  1 26  1  0
  1 27  1  0
  1 28  1  0
  2 29  1  1
  3 30  1  0
  3 31  1  0
  4 32  1  0
  6 33  1  0
  7 34  1  0
  9 35  1  0
 10 36  1  0
 11 37  1  0
 11 38  1  0
 14 39  1  0
 15 40  1  0
 16 41  1  0
 16 42  1  0
 17 43  1  1
 19 44  1  0
 20 45  1  0
 21 46  1  0
 23 47  1  0
 25 48  1  0
M  END
>  <Ligand ID>  (1) 
LIG0002245

>  <Ligand>  (1) 
CHEMBL154419

>  <SMILES>  (1) 
C[C@H](CNc1ccc(cc1)CC(=O)O)NC[C@@H](c1cccc(c1)Cl)O

>  <CID>  (1) 
9799092.0

>  <ChEMBL ID>  (1) 
nan

>  <InChiKey>  (1) 
FUQCILPMICPJAL-ACJLOTCBSA-N

>  <InChi>  (1) 
InChI=1S/C19H23ClN2O3/c1-13(21-12-18(23)15-3-2-4-16(20)10-15)11-22-17-7-5-14(6-8-17)9-19(24)25/h2-8,10,13,18,21-23H,9,11-12H2,1H3,(H,24,25)/t13-,18+/m1/s1

>  <IUPAC Name>  (1) 
2-[4-[[(2R)-2-[[(2R)-2-(3-chlorophenyl)-2-hydroxyethyl]amino]propyl]amino]phenyl]acetic acid

$$$$
