
     RDKit          3D

 57 58  0  0  0  0  0  0  0  0999 V2000
   -6.2094   -0.1147   -0.7622 C   0  0  0  0  0  0  0  0  0  0  0  0
   -5.8111    0.8292   -1.8886 C   0  0  0  0  0  0  0  0  0  0  0  0
   -4.2827    0.8239   -2.0357 C   0  0  0  0  0  0  0  0  0  0  0  0
   -3.7278    1.2823   -0.7607 C   0  0  0  0  0  0  0  0  0  0  0  0
   -4.1099    2.4370   -0.3554 O   0  0  0  0  0  0  0  0  0  0  0  0
   -2.7944    0.5489    0.0708 C   0  0  0  0  0  0  0  0  0  0  0  0
   -2.3614   -0.7108   -0.2669 C   0  0  0  0  0  0  0  0  0  0  0  0
   -1.4782   -1.3643    0.5932 C   0  0  0  0  0  0  0  0  0  0  0  0
   -1.0203   -0.8109    1.7581 C   0  0  0  0  0  0  0  0  0  0  0  0
   -1.4904    0.4788    2.0616 C   0  0  0  0  0  0  0  0  0  0  0  0
   -2.3613    1.1486    1.2356 C   0  0  0  0  0  0  0  0  0  0  0  0
   -2.7791    2.4271    1.6121 O   0  0  0  0  0  0  0  0  0  0  0  0
   -1.0348    1.1614    3.3250 C   0  0  0  0  0  0  0  0  0  0  0  0
   -0.1664   -1.3650    2.6557 O   0  0  0  0  0  0  0  0  0  0  0  0
    0.5000   -2.5668    2.7104 C   0  0  0  0  0  0  0  0  0  0  0  0
    1.5005   -2.7797    1.6289 C   0  0  0  0  0  0  0  0  0  0  0  0
    2.6796   -1.8521    1.5886 C   0  0  0  0  0  0  0  0  0  0  0  0
    2.2570   -0.4216    1.4145 C   0  0  0  0  0  0  0  0  0  0  0  0
    3.3397    0.4719    1.2873 O   0  0  0  0  0  0  0  0  0  0  0  0
    4.2329    0.5047    0.2729 C   0  0  0  0  0  0  0  0  0  0  0  0
    5.2619    1.4587    0.3670 C   0  0  0  0  0  0  0  0  0  0  0  0
    6.2275    1.5896   -0.6035 C   0  0  0  0  0  0  0  0  0  0  0  0
    6.2290    0.7851   -1.7193 C   0  0  0  0  0  0  0  0  0  0  0  0
    5.2393   -0.1488   -1.8337 C   0  0  0  0  0  0  0  0  0  0  0  0
    4.2635   -0.2791   -0.8518 C   0  0  0  0  0  0  0  0  0  0  0  0
    5.2228   -1.1822   -3.2475 Cl  0  0  0  0  0  0  0  0  0  0  0  0
    7.2526    0.9124   -2.7513 C   0  0  0  0  0  0  0  0  0  0  0  0
    7.2358    0.1636   -3.7599 O   0  0  0  0  0  0  0  0  0  0  0  0
    8.2620    1.8878   -2.6005 O   0  0  0  0  0  0  0  0  0  0  0  0
   -6.5011    0.4719   -3.1786 C   0  0  0  0  0  0  0  0  0  0  0  0
   -5.7997   -1.1272   -1.0440 H   0  0  0  0  0  0  0  0  0  0  0  0
   -5.6874    0.1666    0.1685 H   0  0  0  0  0  0  0  0  0  0  0  0
   -7.2982   -0.1330   -0.6452 H   0  0  0  0  0  0  0  0  0  0  0  0
   -6.1254    1.8483   -1.5908 H   0  0  0  0  0  0  0  0  0  0  0  0
   -3.9006   -0.1169   -2.4240 H   0  0  0  0  0  0  0  0  0  0  0  0
   -4.0935    1.6235   -2.8134 H   0  0  0  0  0  0  0  0  0  0  0  0
   -2.6933   -1.1969   -1.1812 H   0  0  0  0  0  0  0  0  0  0  0  0
   -1.1845   -2.3524    0.2878 H   0  0  0  0  0  0  0  0  0  0  0  0
   -2.3092    3.2077    1.1282 H   0  0  0  0  0  0  0  0  0  0  0  0
   -0.8825    0.3252    4.0641 H   0  0  0  0  0  0  0  0  0  0  0  0
   -1.8653    1.7642    3.7828 H   0  0  0  0  0  0  0  0  0  0  0  0
   -0.1000    1.7073    3.1870 H   0  0  0  0  0  0  0  0  0  0  0  0
   -0.3021   -3.3794    2.6765 H   0  0  0  0  0  0  0  0  0  0  0  0
    1.0167   -2.7068    3.7194 H   0  0  0  0  0  0  0  0  0  0  0  0
    1.0520   -2.7108    0.5906 H   0  0  0  0  0  0  0  0  0  0  0  0
    1.8675   -3.8677    1.6313 H   0  0  0  0  0  0  0  0  0  0  0  0
    3.3833   -2.2169    0.8344 H   0  0  0  0  0  0  0  0  0  0  0  0
    3.2354   -1.8949    2.5918 H   0  0  0  0  0  0  0  0  0  0  0  0
    1.5713   -0.3693    0.5581 H   0  0  0  0  0  0  0  0  0  0  0  0
    1.6407   -0.0877    2.3198 H   0  0  0  0  0  0  0  0  0  0  0  0
    5.3265    2.1288    1.2162 H   0  0  0  0  0  0  0  0  0  0  0  0
    7.0136    2.3283   -0.5214 H   0  0  0  0  0  0  0  0  0  0  0  0
    3.5114   -1.0225   -1.0420 H   0  0  0  0  0  0  0  0  0  0  0  0
    9.1705    1.7529   -3.0389 H   0  0  0  0  0  0  0  0  0  0  0  0
   -7.2010   -0.3660   -2.9595 H   0  0  0  0  0  0  0  0  0  0  0  0
   -5.7790    0.2139   -3.9810 H   0  0  0  0  0  0  0  0  0  0  0  0
   -7.1428    1.3194   -3.4809 H   0  0  0  0  0  0  0  0  0  0  0  0
  1  2  1  0
  2  3  1  0
  3  4  1  0
  4  5  2  0
  4  6  1  0
  6  7  2  0
  7  8  1  0
  8  9  2  0
  9 10  1  0
 10 11  2  0
 11 12  1  0
 10 13  1  0
  9 14  1  0
 14 15  1  0
 15 16  1  0
 16 17  1  0
 17 18  1  0
 18 19  1  0
 19 20  1  0
 20 21  2  0
 21 22  1  0
 22 23  2  0
 23 24  1  0
 24 25  2  0
 24 26  1  0
 23 27  1  0
 27 28  2  0
 27 29  1  0
  2 30  1  0
 11  6  1  0
 25 20  1  0
  1 31  1  0
  1 32  1  0
  1 33  1  0
  2 34  1  0
  3 35  1  0
  3 36  1  0
  7 37  1  0
  8 38  1  0
 12 39  1  0
 13 40  1  0
 13 41  1  0
 13 42  1  0
 15 43  1  0
 15 44  1  0
 16 45  1  0
 16 46  1  0
 17 47  1  0
 17 48  1  0
 18 49  1  0
 18 50  1  0
 21 51  1  0
 22 52  1  0
 25 53  1  0
 29 54  1  0
 30 55  1  0
 30 56  1  0
 30 57  1  0
M  END
>  <Ligand ID>  (1) 
LIG0003643

>  <Ligand>  (1) 
CHEMBL3287683

>  <SMILES>  (1) 
CC(CC(=O)c1ccc(c(c1O)C)OCCCCOc1ccc(c(c1)Cl)C(=O)O)C

>  <CID>  (1) 
90643863.0

>  <ChEMBL ID>  (1) 
nan

>  <InChiKey>  (1) 
PAYKRCRBFFSZFN-UHFFFAOYSA-N

>  <InChi>  (1) 
InChI=1S/C23H27ClO6/c1-14(2)12-20(25)18-8-9-21(15(3)22(18)26)30-11-5-4-10-29-16-6-7-17(23(27)28)19(24)13-16/h6-9,13-14,26H,4-5,10-12H2,1-3H3,(H,27,28)

>  <IUPAC Name>  (1) 
2-chloro-4-[4-[3-hydroxy-2-methyl-4-(3-methylbutanoyl)phenoxy]butoxy]benzoic acid

$$$$
