
     RDKit          3D

 50 52  0  0  0  0  0  0  0  0999 V2000
    0.2547    1.3545    2.6922 O   0  0  0  0  0  0  0  0  0  0  0  0
   -0.4729    0.7748    1.6613 C   0  0  2  0  0  0  0  0  0  0  0  0
    0.0515    1.1375    0.2880 C   0  0  1  0  0  0  0  0  0  0  0  0
    1.3756    0.5049   -0.0135 C   0  0  0  0  0  0  0  0  0  0  0  0
    2.2813    1.0850    0.8823 O   0  0  0  0  0  0  0  0  0  0  0  0
    3.8426    0.4895    0.6905 P   0  0  0  0  0  0  0  0  0  0  0  0
    4.5939    0.5703    2.0216 O   0  0  0  0  0  0  0  0  0  0  0  0
    3.8759   -1.1020    0.1785 O   0  0  0  0  0  0  0  0  0  0  0  0
    5.3902   -1.3950   -0.5194 P   0  0  0  0  0  0  0  0  0  0  0  0
    5.9051   -2.7681   -0.1648 O   0  0  0  0  0  0  0  0  0  0  0  0
    6.5271   -0.2871    0.0469 O   0  0  0  0  0  0  0  0  0  0  0  0
    8.0994   -0.7912   -0.2041 P   0  0  0  0  0  0  0  0  0  0  0  0
    8.2754   -1.4794   -1.5525 O   0  0  0  0  0  0  0  0  0  0  0  0
    9.0968    0.5793   -0.1305 O   0  0  0  0  0  0  0  0  0  0  0  0
    8.4985   -1.8711    1.0561 O   0  0  0  0  0  0  0  0  0  0  0  0
    5.1697   -1.2242   -2.2036 O   0  0  0  0  0  0  0  0  0  0  0  0
    4.6448    1.5204   -0.3914 O   0  0  0  0  0  0  0  0  0  0  0  0
   -0.9856    0.6866   -0.5057 O   0  0  0  0  0  0  0  0  0  0  0  0
   -2.0519    1.3806    0.0228 C   0  0  2  0  0  0  0  0  0  0  0  0
   -1.8818    1.3358    1.5439 C   0  0  2  0  0  0  0  0  0  0  0  0
   -1.9252    2.6626    1.9765 O   0  0  0  0  0  0  0  0  0  0  0  0
   -3.3468    0.8010   -0.2507 N   0  0  0  0  0  0  0  0  0  0  0  0
   -4.3609    1.5791   -0.6759 C   0  0  0  0  0  0  0  0  0  0  0  0
   -5.6191    1.1057   -0.9571 C   0  0  0  0  0  0  0  0  0  0  0  0
   -5.8544   -0.2554   -0.7919 C   0  0  0  0  0  0  0  0  0  0  0  0
   -4.8204   -1.0579   -0.3568 C   0  0  0  0  0  0  0  0  0  0  0  0
   -3.5716   -0.5175   -0.0897 C   0  0  0  0  0  0  0  0  0  0  0  0
   -2.6686   -1.2993    0.3040 O   0  0  0  0  0  0  0  0  0  0  0  0
   -5.0713   -2.4075   -0.1980 C   0  0  0  0  0  0  0  0  0  0  0  0
   -6.3444   -2.8939   -0.4813 C   0  0  0  0  0  0  0  0  0  0  0  0
   -7.3607   -2.0733   -0.9143 C   0  0  0  0  0  0  0  0  0  0  0  0
   -7.1093   -0.7439   -1.0695 C   0  0  0  0  0  0  0  0  0  0  0  0
    0.9151    0.6551    2.9949 H   0  0  0  0  0  0  0  0  0  0  0  0
   -0.5631   -0.3314    1.7848 H   0  0  0  0  0  0  0  0  0  0  0  0
    0.0907    2.2338    0.2245 H   0  0  0  0  0  0  0  0  0  0  0  0
    1.6776    0.8341   -1.0286 H   0  0  0  0  0  0  0  0  0  0  0  0
    1.3735   -0.5853    0.0570 H   0  0  0  0  0  0  0  0  0  0  0  0
    8.6617    1.3317    0.3172 H   0  0  0  0  0  0  0  0  0  0  0  0
    8.2969   -2.7807    0.6822 H   0  0  0  0  0  0  0  0  0  0  0  0
    4.5804   -0.4359   -2.3209 H   0  0  0  0  0  0  0  0  0  0  0  0
    4.3277    2.4398   -0.3384 H   0  0  0  0  0  0  0  0  0  0  0  0
   -2.0166    2.4077   -0.3778 H   0  0  0  0  0  0  0  0  0  0  0  0
   -2.6316    0.7058    2.0381 H   0  0  0  0  0  0  0  0  0  0  0  0
   -1.5113    3.2536    1.2959 H   0  0  0  0  0  0  0  0  0  0  0  0
   -4.1991    2.6492   -0.8125 H   0  0  0  0  0  0  0  0  0  0  0  0
   -6.3977    1.7791   -1.2966 H   0  0  0  0  0  0  0  0  0  0  0  0
   -4.2875   -3.0821    0.1432 H   0  0  0  0  0  0  0  0  0  0  0  0
   -6.4997   -3.9517   -0.3449 H   0  0  0  0  0  0  0  0  0  0  0  0
   -8.3507   -2.4529   -1.1344 H   0  0  0  0  0  0  0  0  0  0  0  0
   -7.9041   -0.0706   -1.4137 H   0  0  0  0  0  0  0  0  0  0  0  0
  1  2  1  0
  2  3  1  0
  3  4  1  0
  4  5  1  0
  5  6  1  0
  6  7  2  0
  6  8  1  0
  8  9  1  0
  9 10  2  0
  9 11  1  0
 11 12  1  0
 12 13  2  0
 12 14  1  0
 12 15  1  0
  9 16  1  0
  6 17  1  0
  3 18  1  0
 18 19  1  0
 19 20  1  0
 20 21  1  0
 19 22  1  0
 22 23  1  0
 23 24  2  0
 24 25  1  0
 25 26  2  0
 26 27  1  0
 27 28  2  0
 26 29  1  0
 29 30  2  0
 30 31  1  0
 31 32  2  0
 20  2  1  0
 27 22  1  0
 32 25  1  0
  1 33  1  0
  2 34  1  1
  3 35  1  1
  4 36  1  0
  4 37  1  0
 14 38  1  0
 15 39  1  0
 16 40  1  0
 17 41  1  0
 19 42  1  6
 20 43  1  1
 21 44  1  0
 23 45  1  0
 24 46  1  0
 29 47  1  0
 30 48  1  0
 31 49  1  0
 32 50  1  0
M  END
>  <Ligand ID>  (1) 
LIG0001272

>  <Ligand>  (1) 
CHEMBL393100

>  <SMILES>  (1) 
O[C@@H]1[C@@H](COP(=O)(OP(=O)(OP(=O)(O)O)O)O)O[C@H]([C@@H]1O)n1ccc2c(c1=O)cccc2

>  <CID>  (1) 
44439743.0

>  <ChEMBL ID>  (1) 
nan

>  <InChiKey>  (1) 
VNYFQXUDSXOXNV-HKUMRIAESA-N

>  <InChi>  (1) 
InChI=1S/C14H18NO14P3/c16-11-10(7-26-31(22,23)29-32(24,25)28-30(19,20)21)27-14(12(11)17)15-6-5-8-3-1-2-4-9(8)13(15)18/h1-6,10-12,14,16-17H,7H2,(H,22,23)(H,24,25)(H2,19,20,21)/t10-,11-,12-,14-/m1/s1

>  <IUPAC Name>  (1) 
[[(2R,3S,4R,5R)-3,4-dihydroxy-5-(1-oxoisoquinolin-2-yl)oxolan-2-yl]methoxy-hydroxyphosphoryl] phosphono hydrogen phosphate

$$$$
