
     RDKit          3D

 41 42  0  0  0  0  0  0  0  0999 V2000
    1.8066    0.8852   -2.1037 S   0  0  0  0  0  0  0  0  0  0  0  0
    1.2942    0.2824   -0.6540 C   0  0  0  0  0  0  0  0  0  0  0  0
    2.2637   -0.0466    0.3506 N   0  0  0  0  0  0  0  0  0  0  0  0
    3.6565    0.1717    0.1056 C   0  0  0  0  0  0  0  0  0  0  0  0
    4.0641    1.3804   -0.4228 C   0  0  0  0  0  0  0  0  0  0  0  0
    5.4109    1.6526   -0.6943 C   0  0  0  0  0  0  0  0  0  0  0  0
    6.3595    0.6681   -0.4193 C   0  0  0  0  0  0  0  0  0  0  0  0
    5.9238   -0.5231    0.1057 C   0  0  0  0  0  0  0  0  0  0  0  0
    4.6062   -0.7838    0.3695 C   0  0  0  0  0  0  0  0  0  0  0  0
   -0.1185    0.0766   -0.4108 N   0  0  0  0  0  0  0  0  0  0  0  0
   -0.4896   -0.4536    0.8524 C   0  0  0  0  0  0  0  0  0  0  0  0
   -1.9303   -0.6901    1.1058 C   0  0  0  0  0  0  0  0  0  0  0  0
   -2.7448    0.5588    0.9874 C   0  0  0  0  0  0  0  0  0  0  0  0
   -4.1240    0.4216    0.9579 C   0  0  0  0  0  0  0  0  0  0  0  0
   -4.8968    1.5764    0.8334 C   0  0  0  0  0  0  0  0  0  0  0  0
   -4.2293    2.7981    0.7470 C   0  0  0  0  0  0  0  0  0  0  0  0
   -2.8772    2.8714    0.7821 N   0  0  0  0  0  0  0  0  0  0  0  0
   -2.1218    1.7722    0.9008 C   0  0  0  0  0  0  0  0  0  0  0  0
   -2.5866   -1.6527    0.2660 N   0  0  0  0  0  0  0  0  0  0  0  0
   -2.7848   -1.2631   -1.0995 C   0  0  0  0  0  0  0  0  0  0  0  0
   -2.0387   -2.9835    0.3987 C   0  0  0  0  0  0  0  0  0  0  0  0
    1.9321   -0.4467    1.2547 H   0  0  0  0  0  0  0  0  0  0  0  0
    3.3877    2.1915   -0.6592 H   0  0  0  0  0  0  0  0  0  0  0  0
    5.6912    2.6156   -1.1088 H   0  0  0  0  0  0  0  0  0  0  0  0
    7.4182    0.8780   -0.6281 H   0  0  0  0  0  0  0  0  0  0  0  0
    6.6760   -1.2775    0.3153 H   0  0  0  0  0  0  0  0  0  0  0  0
    4.2860   -1.7338    0.7851 H   0  0  0  0  0  0  0  0  0  0  0  0
   -0.7534    0.3419   -1.1939 H   0  0  0  0  0  0  0  0  0  0  0  0
    0.0260   -1.4530    0.9670 H   0  0  0  0  0  0  0  0  0  0  0  0
   -0.1002    0.1682    1.6966 H   0  0  0  0  0  0  0  0  0  0  0  0
   -2.0505   -1.0246    2.1542 H   0  0  0  0  0  0  0  0  0  0  0  0
   -4.5907   -0.5674    1.0300 H   0  0  0  0  0  0  0  0  0  0  0  0
   -5.9677    1.5106    0.8040 H   0  0  0  0  0  0  0  0  0  0  0  0
   -4.8262    3.7144    0.6496 H   0  0  0  0  0  0  0  0  0  0  0  0
   -1.0584    1.9041    0.9228 H   0  0  0  0  0  0  0  0  0  0  0  0
   -3.0479   -0.1978   -1.1796 H   0  0  0  0  0  0  0  0  0  0  0  0
   -2.0207   -1.5723   -1.8121 H   0  0  0  0  0  0  0  0  0  0  0  0
   -3.7399   -1.7943   -1.4197 H   0  0  0  0  0  0  0  0  0  0  0  0
   -2.7272   -3.7124   -0.0527 H   0  0  0  0  0  0  0  0  0  0  0  0
   -1.0253   -3.0662   -0.0464 H   0  0  0  0  0  0  0  0  0  0  0  0
   -1.9522   -3.1976    1.4859 H   0  0  0  0  0  0  0  0  0  0  0  0
  1  2  2  0
  2  3  1  0
  3  4  1  0
  4  5  2  0
  5  6  1  0
  6  7  2  0
  7  8  1  0
  8  9  2  0
  2 10  1  0
 10 11  1  0
 11 12  1  0
 12 13  1  0
 13 14  2  0
 14 15  1  0
 15 16  2  0
 16 17  1  0
 17 18  2  0
 12 19  1  0
 19 20  1  0
 19 21  1  0
  9  4  1  0
 18 13  1  0
  3 22  1  0
  5 23  1  0
  6 24  1  0
  7 25  1  0
  8 26  1  0
  9 27  1  0
 10 28  1  0
 11 29  1  0
 11 30  1  0
 12 31  1  0
 14 32  1  0
 15 33  1  0
 16 34  1  0
 18 35  1  0
 20 36  1  0
 20 37  1  0
 20 38  1  0
 21 39  1  0
 21 40  1  0
 21 41  1  0
M  END
>  <Ligand ID>  (1) 
LIG0004530

>  <Ligand>  (1) 
SMR000236202

>  <SMILES>  (1) 
S=C(Nc1ccccc1)NCC(c1cccnc1)N(C)C

>  <CID>  (1) 
3418043.0

>  <ChEMBL ID>  (1) 
nan

>  <InChiKey>  (1) 
FVVXMBTYFRNMAK-UHFFFAOYSA-N

>  <InChi>  (1) 
InChI=1S/C16H20N4S/c1-20(2)15(13-7-6-10-17-11-13)12-18-16(21)19-14-8-4-3-5-9-14/h3-11,15H,12H2,1-2H3,(H2,18,19,21)

>  <IUPAC Name>  (1) 
1-[2-(dimethylamino)-2-pyridin-3-ylethyl]-3-phenylthiourea

$$$$
