
     RDKit          3D

 74 73  0  0  0  0  0  0  0  0999 V2000
    1.4177   -0.6494    0.3056 O   0  0  0  0  0  0  0  0  0  0  0  0
    0.4949    0.2793   -0.1521 C   0  0  0  0  0  0  0  0  0  0  0  0
    0.8268    1.3731   -0.6939 O   0  0  0  0  0  0  0  0  0  0  0  0
   -0.9561   -0.0656    0.0212 C   0  0  0  0  0  0  0  0  0  0  0  0
   -1.2306   -1.2339   -0.6580 F   0  0  0  0  0  0  0  0  0  0  0  0
   -1.7643    0.9343   -0.4787 F   0  0  0  0  0  0  0  0  0  0  0  0
   -1.2005   -0.2537    1.3856 F   0  0  0  0  0  0  0  0  0  0  0  0
   -7.2655    2.2839   -1.7835 C   0  0  0  0  0  0  0  0  0  0  0  0
   -6.6307    0.9446   -1.3736 C   0  0  0  0  0  0  0  0  0  0  0  0
   -7.6165   -0.1403   -1.4970 C   0  0  0  0  0  0  0  0  0  0  0  0
   -7.1645   -1.4946   -1.1362 C   0  0  0  0  0  0  0  0  0  0  0  0
   -6.7452   -1.8268    0.2129 C   0  0  0  0  0  0  0  0  0  0  0  0
   -5.6331   -1.2432    0.9517 C   0  0  0  0  0  0  0  0  0  0  0  0
   -4.2524   -1.3831    0.4712 C   0  0  0  0  0  0  0  0  0  0  0  0
   -3.7915   -0.8042   -0.7943 C   0  0  0  0  0  0  0  0  0  0  0  0
   -2.3170   -1.1604   -0.9817 C   0  0  0  0  0  0  0  0  0  0  0  0
   -1.4248   -0.6413    0.0948 C   0  0  0  0  0  0  0  0  0  0  0  0
   -1.4601    0.8533    0.2314 C   0  0  0  0  0  0  0  0  0  0  0  0
   -0.5326    1.2573    1.3490 C   0  0  0  0  0  0  0  0  0  0  0  0
    0.8560    0.8295    1.0658 C   0  0  0  0  0  0  0  0  0  0  0  0
    1.7110    1.6758    0.3560 C   0  0  0  0  0  0  0  0  0  0  0  0
    3.0180    1.3210    0.0747 C   0  0  0  0  0  0  0  0  0  0  0  0
    3.4999    0.1002    0.5023 C   0  0  0  0  0  0  0  0  0  0  0  0
    2.6856   -0.7620    1.2057 C   0  0  0  0  0  0  0  0  0  0  0  0
    1.3871   -0.3771    1.4694 C   0  0  0  0  0  0  0  0  0  0  0  0
    4.8552   -0.3162    0.2343 N   0  0  0  0  0  0  0  0  0  0  0  0
    5.8208    0.0276    1.1954 C   0  0  0  0  0  0  0  0  0  0  0  0
    5.4630    0.6761    2.2347 O   0  0  0  0  0  0  0  0  0  0  0  0
    7.2374   -0.3190    1.0748 C   0  0  1  0  0  0  0  0  0  0  0  0
    7.8512    0.1324   -0.2291 C   0  0  0  0  0  0  0  0  0  0  0  0
    9.1576   -0.3327   -0.3548 O   0  0  0  0  0  0  0  0  0  0  0  0
    9.7571    0.2234   -1.8400 P   0  0  0  0  0  0  0  0  0  0  0  0
    9.2381   -0.6977   -2.9139 O   0  0  0  0  0  0  0  0  0  0  0  0
   11.4451    0.2606   -1.8095 O   0  0  0  0  0  0  0  0  0  0  0  0
    9.1193    1.7852   -2.0505 O   0  0  0  0  0  0  0  0  0  0  0  0
    7.9844    0.1695    2.2172 N   0  0  0  0  0  0  0  0  0  0  0  0
    2.4122   -0.3841    0.2702 H   0  0  0  0  0  0  0  0  0  0  0  0
   -6.4709    3.0437   -1.6150 H   0  0  0  0  0  0  0  0  0  0  0  0
   -7.5009    2.2985   -2.8528 H   0  0  0  0  0  0  0  0  0  0  0  0
   -8.1824    2.4945   -1.2156 H   0  0  0  0  0  0  0  0  0  0  0  0
   -6.1474    1.1133   -0.4282 H   0  0  0  0  0  0  0  0  0  0  0  0
   -5.8234    0.8020   -2.1399 H   0  0  0  0  0  0  0  0  0  0  0  0
   -8.5527    0.1126   -0.9088 H   0  0  0  0  0  0  0  0  0  0  0  0
   -7.9439   -0.1847   -2.5866 H   0  0  0  0  0  0  0  0  0  0  0  0
   -6.4110   -1.8459   -1.8957 H   0  0  0  0  0  0  0  0  0  0  0  0
   -8.0836   -2.1817   -1.4189 H   0  0  0  0  0  0  0  0  0  0  0  0
   -7.7215   -1.7610    0.8612 H   0  0  0  0  0  0  0  0  0  0  0  0
   -6.6498   -2.9923    0.2229 H   0  0  0  0  0  0  0  0  0  0  0  0
   -5.6224   -1.8577    1.9600 H   0  0  0  0  0  0  0  0  0  0  0  0
   -5.8514   -0.2202    1.3780 H   0  0  0  0  0  0  0  0  0  0  0  0
   -3.5071   -1.0977    1.2997 H   0  0  0  0  0  0  0  0  0  0  0  0
   -4.0307   -2.5086    0.3971 H   0  0  0  0  0  0  0  0  0  0  0  0
   -4.2921   -1.2373   -1.6671 H   0  0  0  0  0  0  0  0  0  0  0  0
   -3.9113    0.3072   -0.8590 H   0  0  0  0  0  0  0  0  0  0  0  0
   -2.2225   -2.2650   -1.0023 H   0  0  0  0  0  0  0  0  0  0  0  0
   -1.9517   -0.7751   -1.9526 H   0  0  0  0  0  0  0  0  0  0  0  0
   -0.3412   -0.8735   -0.1763 H   0  0  0  0  0  0  0  0  0  0  0  0
   -1.5393   -1.1040    1.0871 H   0  0  0  0  0  0  0  0  0  0  0  0
   -2.4720    1.2302    0.5221 H   0  0  0  0  0  0  0  0  0  0  0  0
   -1.1184    1.3410   -0.7153 H   0  0  0  0  0  0  0  0  0  0  0  0
   -0.8933    0.7131    2.2527 H   0  0  0  0  0  0  0  0  0  0  0  0
   -0.6020    2.3425    1.5717 H   0  0  0  0  0  0  0  0  0  0  0  0
    1.3387    2.6463    0.0123 H   0  0  0  0  0  0  0  0  0  0  0  0
    3.6764    1.9837   -0.4772 H   0  0  0  0  0  0  0  0  0  0  0  0
    3.0317   -1.7098    1.5475 H   0  0  0  0  0  0  0  0  0  0  0  0
    0.7523   -1.0516    2.0189 H   0  0  0  0  0  0  0  0  0  0  0  0
    5.1117   -0.8456   -0.6267 H   0  0  0  0  0  0  0  0  0  0  0  0
    7.3300   -1.4320    1.0863 H   0  0  0  0  0  0  0  0  0  0  0  0
    7.9253    1.2570   -0.1708 H   0  0  0  0  0  0  0  0  0  0  0  0
    7.2284   -0.0721   -1.0955 H   0  0  0  0  0  0  0  0  0  0  0  0
   11.7556    0.6335   -0.9568 H   0  0  0  0  0  0  0  0  0  0  0  0
    8.1520    1.6746   -2.2324 H   0  0  0  0  0  0  0  0  0  0  0  0
    7.4727   -0.2334    3.0590 H   0  0  0  0  0  0  0  0  0  0  0  0
    7.8154    1.2140    2.3280 H   0  0  0  0  0  0  0  0  0  0  0  0
  1  2  1  0
  2  3  2  0
  2  4  1  0
  4  5  1  0
  4  6  1  0
  4  7  1  0
  8  9  1  0
  9 10  1  0
 10 11  1  0
 11 12  1  0
 12 13  1  0
 13 14  1  0
 14 15  1  0
 15 16  1  0
 16 17  1  0
 17 18  1  0
 18 19  1  0
 19 20  1  0
 20 21  2  0
 21 22  1  0
 22 23  2  0
 23 24  1  0
 24 25  2  0
 23 26  1  0
 26 27  1  0
 27 28  2  0
 27 29  1  0
 29 30  1  0
 30 31  1  0
 31 32  1  0
 32 33  2  0
 32 34  1  0
 32 35  1  0
 29 36  1  0
 25 20  1  0
  1 37  1  0
  8 38  1  0
  8 39  1  0
  8 40  1  0
  9 41  1  0
  9 42  1  0
 10 43  1  0
 10 44  1  0
 11 45  1  0
 11 46  1  0
 12 47  1  0
 12 48  1  0
 13 49  1  0
 13 50  1  0
 14 51  1  0
 14 52  1  0
 15 53  1  0
 15 54  1  0
 16 55  1  0
 16 56  1  0
 17 57  1  0
 17 58  1  0
 18 59  1  0
 18 60  1  0
 19 61  1  0
 19 62  1  0
 21 63  1  0
 22 64  1  0
 24 65  1  0
 25 66  1  0
 26 67  1  0
 29 68  1  6
 30 69  1  0
 30 70  1  0
 34 71  1  0
 35 72  1  0
 36 73  1  0
 36 74  1  0
M  END
>  <Ligand ID>  (1) 
LIG0004260

>  <Ligand>  (1) 
CHEMBL116953

>  <SMILES>  (1) 
OC(=O)C(F)(F)F.CCCCCCCCCCCCc1ccc(cc1)NC(=O)[C@@H](COP(=O)(O)O)N

>  <CID>  (1) 
44342330.0

>  <ChEMBL ID>  (1) 
nan

>  <InChiKey>  (1) 
JNWFGPWQDUYZIC-VEIFNGETSA-N

>  <InChi>  (1) 
InChI=1S/C21H37N2O5P.C2HF3O2/c1-2-3-4-5-6-7-8-9-10-11-12-18-13-15-19(16-14-18)23-21(24)20(22)17-28-29(25,26)27;3-2(4,5)1(6)7/h13-16,20H,2-12,17,22H2,1H3,(H,23,24)(H2,25,26,27);(H,6,7)/t20-;/m1./s1

>  <IUPAC Name>  (1) 
[(2R)-2-amino-3-(4-dodecylanilino)-3-oxopropyl] dihydrogen phosphate;2,2,2-trifluoroacetic acid

$$$$
