
     RDKit          3D

 75 79  0  0  0  0  0  0  0  0999 V2000
   -2.7185    6.9322    3.0481 Cl  0  0  0  0  0  0  0  0  0  0  0  0
   -2.1393    5.7000    1.9395 C   0  0  0  0  0  0  0  0  0  0  0  0
   -0.7919    5.4130    1.8008 C   0  0  0  0  0  0  0  0  0  0  0  0
   -0.3857    4.4328    0.9125 C   0  0  0  0  0  0  0  0  0  0  0  0
   -1.2774    3.7168    0.1464 C   0  0  0  0  0  0  0  0  0  0  0  0
   -2.6156    4.0124    0.2943 C   0  0  0  0  0  0  0  0  0  0  0  0
   -3.0304    4.9874    1.1767 C   0  0  0  0  0  0  0  0  0  0  0  0
   -0.7931    2.6609   -0.8087 C   0  0  0  0  0  0  0  0  0  0  0  0
   -0.6903    1.3082   -0.1817 C   0  0  2  0  0  0  0  0  0  0  0  0
   -0.2119    0.2522   -1.1115 C   0  0  0  0  0  0  0  0  0  0  0  0
   -0.9217   -0.7501   -1.4383 O   0  0  0  0  0  0  0  0  0  0  0  0
    1.0940    0.2725   -1.7199 N   0  0  0  0  0  0  0  0  0  0  0  0
    1.3318   -0.8512   -2.6407 C   0  0  0  0  0  0  0  0  0  0  0  0
    2.8016   -1.1527   -2.7715 C   0  0  0  0  0  0  0  0  0  0  0  0
    3.5247   -0.7103   -1.5744 N   0  0  0  0  0  0  0  0  0  0  0  0
    3.5043    0.7353   -1.3633 C   0  0  0  0  0  0  0  0  0  0  0  0
    2.0744    1.2822   -1.4440 C   0  0  0  0  0  0  0  0  0  0  0  0
    4.1346   -1.6331   -0.6977 C   0  0  0  0  0  0  0  0  0  0  0  0
    3.5047   -2.8774   -0.5772 C   0  0  0  0  0  0  0  0  0  0  0  0
    3.9635   -3.8480    0.2880 C   0  0  0  0  0  0  0  0  0  0  0  0
    5.0724   -3.6015    1.0632 C   0  0  0  0  0  0  0  0  0  0  0  0
    5.7018   -2.3780    0.9519 C   0  0  0  0  0  0  0  0  0  0  0  0
    5.2415   -1.3881    0.0740 C   0  0  0  0  0  0  0  0  0  0  0  0
    5.9417   -0.1832   -0.0400 N   0  0  0  0  0  0  0  0  0  0  0  0
    6.7814    0.6279    1.1940 S   0  0  0  0  0  0  0  0  0  0  0  0
    7.3129    1.9539    0.7286 O   0  0  0  0  0  0  0  0  0  0  0  0
    5.7540    0.9733    2.2676 O   0  0  0  0  0  0  0  0  0  0  0  0
    8.1288   -0.2813    1.8891 C   0  0  0  0  0  0  0  0  0  0  0  0
   -2.0002    0.9377    0.3529 N   0  0  0  0  0  0  0  0  0  0  0  0
   -3.1091    0.6107   -0.4604 C   0  0  0  0  0  0  0  0  0  0  0  0
   -3.0931    0.6077   -1.7176 O   0  0  0  0  0  0  0  0  0  0  0  0
   -4.3993    0.2395    0.1850 C   0  0  1  0  0  0  0  0  0  0  0  0
   -5.3241   -0.0329   -0.8679 N   0  0  0  0  0  0  0  0  0  0  0  0
   -6.5751   -0.6298   -0.4438 C   0  0  0  0  0  0  0  0  0  0  0  0
   -6.1980   -2.0157    0.0224 C   0  0  0  0  0  0  0  0  0  0  0  0
   -5.0603   -2.0787    0.8027 C   0  0  0  0  0  0  0  0  0  0  0  0
   -4.2719   -0.8706    1.1602 C   0  0  0  0  0  0  0  0  0  0  0  0
   -4.6502   -3.2975    1.2616 C   0  0  0  0  0  0  0  0  0  0  0  0
   -5.3822   -4.4202    0.9324 C   0  0  0  0  0  0  0  0  0  0  0  0
   -6.5235   -4.3411    0.1473 C   0  0  0  0  0  0  0  0  0  0  0  0
   -6.9410   -3.1174   -0.3173 C   0  0  0  0  0  0  0  0  0  0  0  0
   -0.0574    5.9469    2.3799 H   0  0  0  0  0  0  0  0  0  0  0  0
    0.6816    4.2422    0.8372 H   0  0  0  0  0  0  0  0  0  0  0  0
   -3.3643    3.4856   -0.2793 H   0  0  0  0  0  0  0  0  0  0  0  0
   -4.1107    5.1777    1.2497 H   0  0  0  0  0  0  0  0  0  0  0  0
   -1.5876    2.6253   -1.6075 H   0  0  0  0  0  0  0  0  0  0  0  0
    0.1404    3.0339   -1.2270 H   0  0  0  0  0  0  0  0  0  0  0  0
    0.0195    1.3197    0.6442 H   0  0  0  0  0  0  0  0  0  0  0  0
    0.8504   -0.6578   -3.6206 H   0  0  0  0  0  0  0  0  0  0  0  0
    0.8434   -1.7502   -2.2136 H   0  0  0  0  0  0  0  0  0  0  0  0
    2.9195   -2.2379   -2.9168 H   0  0  0  0  0  0  0  0  0  0  0  0
    3.1665   -0.5890   -3.6599 H   0  0  0  0  0  0  0  0  0  0  0  0
    4.1394    1.2033   -2.1444 H   0  0  0  0  0  0  0  0  0  0  0  0
    3.8913    1.0368   -0.3721 H   0  0  0  0  0  0  0  0  0  0  0  0
    1.8360    1.6502   -0.4045 H   0  0  0  0  0  0  0  0  0  0  0  0
    2.0923    2.0927   -2.1960 H   0  0  0  0  0  0  0  0  0  0  0  0
    2.6243   -3.1351   -1.1542 H   0  0  0  0  0  0  0  0  0  0  0  0
    3.4903   -4.8211    0.3986 H   0  0  0  0  0  0  0  0  0  0  0  0
    5.4369   -4.3717    1.7503 H   0  0  0  0  0  0  0  0  0  0  0  0
    6.5672   -2.2302    1.5812 H   0  0  0  0  0  0  0  0  0  0  0  0
    5.9696    0.2576   -1.0117 H   0  0  0  0  0  0  0  0  0  0  0  0
    7.8310   -0.6767    2.8812 H   0  0  0  0  0  0  0  0  0  0  0  0
    8.9877    0.4164    2.1324 H   0  0  0  0  0  0  0  0  0  0  0  0
    8.5800   -1.0205    1.2092 H   0  0  0  0  0  0  0  0  0  0  0  0
   -2.1500    0.9056    1.3986 H   0  0  0  0  0  0  0  0  0  0  0  0
   -4.7628    1.1688    0.6935 H   0  0  0  0  0  0  0  0  0  0  0  0
   -4.8785   -0.7096   -1.5269 H   0  0  0  0  0  0  0  0  0  0  0  0
   -7.1843   -0.7707   -1.3477 H   0  0  0  0  0  0  0  0  0  0  0  0
   -7.1007   -0.0890    0.3422 H   0  0  0  0  0  0  0  0  0  0  0  0
   -3.2254   -1.1309    1.4177 H   0  0  0  0  0  0  0  0  0  0  0  0
   -4.7112   -0.5280    2.1385 H   0  0  0  0  0  0  0  0  0  0  0  0
   -3.7653   -3.3977    1.8765 H   0  0  0  0  0  0  0  0  0  0  0  0
   -5.0245   -5.3739    1.3162 H   0  0  0  0  0  0  0  0  0  0  0  0
   -7.0794   -5.2493   -0.0949 H   0  0  0  0  0  0  0  0  0  0  0  0
   -7.8296   -3.0212   -0.9334 H   0  0  0  0  0  0  0  0  0  0  0  0
  1  2  1  0
  2  3  2  0
  3  4  1  0
  4  5  2  0
  5  6  1  0
  6  7  2  0
  5  8  1  0
  8  9  1  0
  9 10  1  0
 10 11  2  0
 10 12  1  0
 12 13  1  0
 13 14  1  0
 14 15  1  0
 15 16  1  0
 16 17  1  0
 15 18  1  0
 18 19  2  0
 19 20  1  0
 20 21  2  0
 21 22  1  0
 22 23  2  0
 23 24  1  0
 24 25  1  0
 25 26  2  0
 25 27  2  0
 25 28  1  0
  9 29  1  0
 29 30  1  0
 30 31  2  0
 30 32  1  0
 32 33  1  0
 33 34  1  0
 34 35  1  0
 35 36  2  0
 36 37  1  0
 36 38  1  0
 38 39  2  0
 39 40  1  0
 40 41  2  0
  7  2  1  0
 17 12  1  0
 23 18  1  0
 37 32  1  0
 41 35  1  0
  3 42  1  0
  4 43  1  0
  6 44  1  0
  7 45  1  0
  8 46  1  0
  8 47  1  0
  9 48  1  1
 13 49  1  0
 13 50  1  0
 14 51  1  0
 14 52  1  0
 16 53  1  0
 16 54  1  0
 17 55  1  0
 17 56  1  0
 19 57  1  0
 20 58  1  0
 21 59  1  0
 22 60  1  0
 24 61  1  0
 28 62  1  0
 28 63  1  0
 28 64  1  0
 29 65  1  0
 32 66  1  1
 33 67  1  0
 34 68  1  0
 34 69  1  0
 37 70  1  0
 37 71  1  0
 38 72  1  0
 39 73  1  0
 40 74  1  0
 41 75  1  0
M  END
>  <Ligand ID>  (1) 
LIG0004957

>  <Ligand>  (1) 
CHEMBL180892

>  <SMILES>  (1) 
Clc1ccc(cc1)C[C@H](C(=O)N1CCN(CC1)c1ccccc1NS(=O)(=O)C)NC(=O)[C@H]1NCc2c(C1)cccc2

>  <CID>  (1) 
9808720.0

>  <ChEMBL ID>  (1) 
nan

>  <InChiKey>  (1) 
DOQXGQVRPIRXJG-RRPNLBNLSA-N

>  <InChi>  (1) 
InChI=1S/C30H34ClN5O4S/c1-41(39,40)34-25-8-4-5-9-28(25)35-14-16-36(17-15-35)30(38)27(18-21-10-12-24(31)13-11-21)33-29(37)26-19-22-6-2-3-7-23(22)20-32-26/h2-13,26-27,32,34H,14-20H2,1H3,(H,33,37)/t26-,27+/m0/s1

>  <IUPAC Name>  (1) 
(3S)-N-[(2R)-3-(4-chlorophenyl)-1-[4-[2-(methanesulfonamido)phenyl]piperazin-1-yl]-1-oxopropan-2-yl]-1,2,3,4-tetrahydroisoquinoline-3-carboxamide

$$$$
