
     RDKit          3D

 19 18  0  0  0  0  0  0  0  0999 V2000
   -3.3273   -0.2791   -1.5122 C   0  0  0  0  0  0  0  0  0  0  0  0
   -3.4115   -0.4144   -0.2095 C   0  0  0  0  0  0  0  0  0  0  0  0
   -2.3017   -0.7480    0.6982 C   0  0  0  0  0  0  0  0  0  0  0  0
   -0.7372   -0.9689   -0.1358 S   0  0  0  0  0  0  0  0  0  0  0  0
   -0.2008    0.9617   -0.9193 S   0  0  0  0  0  0  0  0  0  0  0  0
    0.9192    1.8759    0.6214 S   0  0  0  0  0  0  0  0  0  0  0  0
    2.6812    1.4819    0.4256 C   0  0  0  0  0  0  0  0  0  0  0  0
    2.8312    0.0216    0.6484 C   0  0  0  0  0  0  0  0  0  0  0  0
    3.3236   -0.7426   -0.3324 C   0  0  0  0  0  0  0  0  0  0  0  0
   -4.1771   -0.0290   -2.1586 H   0  0  0  0  0  0  0  0  0  0  0  0
   -2.3778   -0.4191   -1.9960 H   0  0  0  0  0  0  0  0  0  0  0  0
   -4.3969   -0.2680    0.2384 H   0  0  0  0  0  0  0  0  0  0  0  0
   -2.5669   -1.7264    1.1905 H   0  0  0  0  0  0  0  0  0  0  0  0
   -2.2087   -0.0319    1.5398 H   0  0  0  0  0  0  0  0  0  0  0  0
    3.3017    2.0356    1.1638 H   0  0  0  0  0  0  0  0  0  0  0  0
    3.0473    1.7709   -0.5805 H   0  0  0  0  0  0  0  0  0  0  0  0
    2.5522   -0.4203    1.5805 H   0  0  0  0  0  0  0  0  0  0  0  0
    3.4373   -1.8057   -0.1837 H   0  0  0  0  0  0  0  0  0  0  0  0
    3.6122   -0.2944   -1.2866 H   0  0  0  0  0  0  0  0  0  0  0  0
  1  2  2  0
  2  3  1  0
  3  4  1  0
  4  5  1  0
  5  6  1  0
  6  7  1  0
  7  8  1  0
  8  9  2  0
  1 10  1  0
  1 11  1  0
  2 12  1  0
  3 13  1  0
  3 14  1  0
  7 15  1  0
  7 16  1  0
  8 17  1  0
  9 18  1  0
  9 19  1  0
M  END
>  <Ligand ID>  (1) 
LIG0002045

>  <Ligand>  (1) 
Diallyl Trisulfide

>  <SMILES>  (1) 
C=CCSSSCC=C

>  <CID>  (1) 
16315.0

>  <ChEMBL ID>  (1) 
nan

>  <InChiKey>  (1) 
UBAXRAHSPKWNCX-UHFFFAOYSA-N

>  <InChi>  (1) 
InChI=1S/C6H10S3/c1-3-5-7-9-8-6-4-2/h3-4H,1-2,5-6H2

>  <IUPAC Name>  (1) 
3-(prop-2-enyltrisulfanyl)prop-1-ene

$$$$
