
     RDKit          3D

 40 41  0  0  0  0  0  0  0  0999 V2000
   -3.0504    1.9257    2.3418 C   0  0  0  0  0  0  0  0  0  0  0  0
   -3.0867    0.7926    1.4938 N   0  0  0  0  0  0  0  0  0  0  0  0
   -1.9596    0.6658    0.5937 C   0  0  0  0  0  0  0  0  0  0  0  0
   -2.2976   -0.4602   -0.2885 C   0  0  0  0  0  0  0  0  0  0  0  0
   -2.7970   -1.6724    0.2112 C   0  0  0  0  0  0  0  0  0  0  0  0
   -3.0024   -2.4906   -0.9063 C   0  0  0  0  0  0  0  0  0  0  0  0
   -2.6194   -1.7339   -2.0053 C   0  0  0  0  0  0  0  0  0  0  0  0
   -2.2088   -0.5411   -1.6042 O   0  0  0  0  0  0  0  0  0  0  0  0
   -0.7001    0.5807    1.3588 C   0  0  0  0  0  0  0  0  0  0  0  0
    0.5384    0.4696    0.6598 N   0  0  0  0  0  0  0  0  0  0  0  0
    0.9921   -0.5705   -0.1654 C   0  0  0  0  0  0  0  0  0  0  0  0
    0.3063   -1.5946   -0.3797 O   0  0  0  0  0  0  0  0  0  0  0  0
    2.3063   -0.5473   -0.8463 C   0  0  0  0  0  0  0  0  0  0  0  0
    2.6638   -1.6207   -1.6373 C   0  0  0  0  0  0  0  0  0  0  0  0
    3.8839   -1.6722   -2.3107 C   0  0  0  0  0  0  0  0  0  0  0  0
    4.7575   -0.6180   -2.1806 C   0  0  0  0  0  0  0  0  0  0  0  0
    4.4128    0.4516   -1.3984 C   0  0  0  0  0  0  0  0  0  0  0  0
    3.1902    0.4824   -0.7354 C   0  0  0  0  0  0  0  0  0  0  0  0
    5.3901    1.5670   -1.2889 C   0  0  0  0  0  0  0  0  0  0  0  0
    6.4776    1.1602   -0.5440 F   0  0  0  0  0  0  0  0  0  0  0  0
    5.8817    1.9379   -2.5296 F   0  0  0  0  0  0  0  0  0  0  0  0
    4.8242    2.6553   -0.6902 F   0  0  0  0  0  0  0  0  0  0  0  0
   -4.3397    0.4737    0.9089 C   0  0  0  0  0  0  0  0  0  0  0  0
   -2.4006    2.6939    1.8849 H   0  0  0  0  0  0  0  0  0  0  0  0
   -2.7268    1.7644    3.3758 H   0  0  0  0  0  0  0  0  0  0  0  0
   -4.0644    2.3918    2.3957 H   0  0  0  0  0  0  0  0  0  0  0  0
   -1.9701    1.5779   -0.0411 H   0  0  0  0  0  0  0  0  0  0  0  0
   -2.9894   -1.9390    1.2408 H   0  0  0  0  0  0  0  0  0  0  0  0
   -3.3801   -3.5042   -0.9289 H   0  0  0  0  0  0  0  0  0  0  0  0
   -2.6759   -2.1285   -3.0143 H   0  0  0  0  0  0  0  0  0  0  0  0
   -0.7382   -0.2280    2.1512 H   0  0  0  0  0  0  0  0  0  0  0  0
   -0.6434    1.5166    2.0009 H   0  0  0  0  0  0  0  0  0  0  0  0
    1.2193    1.2854    0.7734 H   0  0  0  0  0  0  0  0  0  0  0  0
    2.0234   -2.4799   -1.7812 H   0  0  0  0  0  0  0  0  0  0  0  0
    4.1324   -2.5369   -2.9271 H   0  0  0  0  0  0  0  0  0  0  0  0
    5.7240   -0.6374   -2.7020 H   0  0  0  0  0  0  0  0  0  0  0  0
    2.9906    1.3561   -0.1398 H   0  0  0  0  0  0  0  0  0  0  0  0
   -4.1982    0.3136   -0.1797 H   0  0  0  0  0  0  0  0  0  0  0  0
   -4.8479   -0.4285    1.3020 H   0  0  0  0  0  0  0  0  0  0  0  0
   -5.0178    1.3413    1.0397 H   0  0  0  0  0  0  0  0  0  0  0  0
  1  2  1  0
  2  3  1  0
  3  4  1  0
  4  5  2  0
  5  6  1  0
  6  7  2  0
  7  8  1  0
  3  9  1  0
  9 10  1  0
 10 11  1  0
 11 12  2  0
 11 13  1  0
 13 14  2  0
 14 15  1  0
 15 16  2  0
 16 17  1  0
 17 18  2  0
 17 19  1  0
 19 20  1  0
 19 21  1  0
 19 22  1  0
  2 23  1  0
  8  4  1  0
 18 13  1  0
  1 24  1  0
  1 25  1  0
  1 26  1  0
  3 27  1  0
  5 28  1  0
  6 29  1  0
  7 30  1  0
  9 31  1  0
  9 32  1  0
 10 33  1  0
 14 34  1  0
 15 35  1  0
 16 36  1  0
 18 37  1  0
 23 38  1  0
 23 39  1  0
 23 40  1  0
M  END
>  <Ligand ID>  (1) 
LIG0004512

>  <Ligand>  (1) 
MLS001176629

>  <SMILES>  (1) 
CN(C(c1ccco1)CNC(=O)c1cccc(c1)C(F)(F)F)C

>  <CID>  (1) 
4803620.0

>  <ChEMBL ID>  (1) 
nan

>  <InChiKey>  (1) 
HQGXNVWYVJRNIR-UHFFFAOYSA-N

>  <InChi>  (1) 
InChI=1S/C16H17F3N2O2/c1-21(2)13(14-7-4-8-23-14)10-20-15(22)11-5-3-6-12(9-11)16(17,18)19/h3-9,13H,10H2,1-2H3,(H,20,22)

>  <IUPAC Name>  (1) 
N-[2-(dimethylamino)-2-(furan-2-yl)ethyl]-3-(trifluoromethyl)benzamide

$$$$
