
     RDKit          3D

121124  0  0  0  0  0  0  0  0999 V2000
   -4.0587   -2.3576   -5.7150 C   0  0  0  0  0  0  0  0  0  0  0  0
   -2.6493   -2.7855   -5.4069 C   0  0  0  0  0  0  0  0  0  0  0  0
   -2.2730   -2.3697   -3.9718 C   0  0  0  0  0  0  0  0  0  0  0  0
   -2.3807   -0.8957   -3.9240 C   0  0  0  0  0  0  0  0  0  0  0  0
   -2.1803   -0.1466   -2.6888 C   0  0  2  0  0  0  0  0  0  0  0  0
   -0.9492   -0.2280   -1.9547 N   0  0  0  0  0  0  0  0  0  0  0  0
   -0.4735   -1.3516   -1.2525 C   0  0  0  0  0  0  0  0  0  0  0  0
   -1.1377   -2.4510   -1.2877 O   0  0  0  0  0  0  0  0  0  0  0  0
    0.7631   -1.4190   -0.4410 C   0  0  2  0  0  0  0  0  0  0  0  0
    0.8561   -2.5748    0.4850 C   0  0  0  0  0  0  0  0  0  0  0  0
   -0.1436   -2.7664    1.5140 C   0  0  0  0  0  0  0  0  0  0  0  0
   -1.1868   -3.7004    1.4385 C   0  0  0  0  0  0  0  0  0  0  0  0
   -1.9453   -3.6542    2.5304 N   0  0  0  0  0  0  0  0  0  0  0  0
   -1.4446   -2.7152    3.3455 C   0  0  0  0  0  0  0  0  0  0  0  0
   -0.3386   -2.1498    2.7531 C   0  0  0  0  0  0  0  0  0  0  0  0
    0.3615   -1.1606    3.3909 C   0  0  0  0  0  0  0  0  0  0  0  0
   -0.0896   -0.7648    4.6335 C   0  0  0  0  0  0  0  0  0  0  0  0
   -1.1926   -1.3218    5.2339 C   0  0  0  0  0  0  0  0  0  0  0  0
   -1.9137   -2.3298    4.5960 C   0  0  0  0  0  0  0  0  0  0  0  0
    1.2154   -0.2090    0.1445 N   0  0  0  0  0  0  0  0  0  0  0  0
    2.4343    0.4767   -0.1167 C   0  0  0  0  0  0  0  0  0  0  0  0
    3.2698    0.0417   -0.9327 O   0  0  0  0  0  0  0  0  0  0  0  0
    2.6293    1.7509    0.6531 C   0  0  0  0  0  0  0  0  0  0  0  0
    3.8505    2.4041    0.3028 N   0  0  0  0  0  0  0  0  0  0  0  0
    5.1566    1.8854    0.4550 C   0  0  0  0  0  0  0  0  0  0  0  0
    5.3274    0.7318    0.9385 O   0  0  0  0  0  0  0  0  0  0  0  0
    6.2836    2.7500    0.0295 C   0  0  2  0  0  0  0  0  0  0  0  0
    7.5833    2.2206    0.2237 N   0  0  0  0  0  0  0  0  0  0  0  0
    8.5117    2.2450   -0.8465 C   0  0  0  0  0  0  0  0  0  0  0  0
    8.1715    2.7405   -1.9790 O   0  0  0  0  0  0  0  0  0  0  0  0
    9.8869    1.7293   -0.7567 C   0  0  2  0  0  0  0  0  0  0  0  0
   10.5625    2.4252    0.4079 C   0  0  0  0  0  0  0  0  0  0  0  0
   11.9617    1.9588    0.5768 C   0  0  0  0  0  0  0  0  0  0  0  0
   12.9460    2.6497   -0.1224 C   0  0  0  0  0  0  0  0  0  0  0  0
   14.2603    2.2540   -0.0013 C   0  0  0  0  0  0  0  0  0  0  0  0
   14.5823    1.1717    0.8169 C   0  0  0  0  0  0  0  0  0  0  0  0
   13.6274    0.4694    1.5208 C   0  0  0  0  0  0  0  0  0  0  0  0
   12.3072    0.8869    1.3833 C   0  0  0  0  0  0  0  0  0  0  0  0
   15.9190    0.7984    0.9168 O   0  0  0  0  0  0  0  0  0  0  0  0
   10.6261    1.9350   -1.9889 N   0  0  0  0  0  0  0  0  0  0  0  0
    6.2599    4.0970    0.7848 C   0  0  0  0  0  0  0  0  0  0  0  0
   -0.1043    0.9861   -1.9559 C   0  0  0  0  0  0  0  0  0  0  0  0
   -3.3632   -0.0650   -1.8239 C   0  0  0  0  0  0  0  0  0  0  0  0
   -3.1324   -0.0605   -0.5614 O   0  0  0  0  0  0  0  0  0  0  0  0
   -4.7064    0.0182   -2.2076 N   0  0  0  0  0  0  0  0  0  0  0  0
   -5.7186    0.1403   -1.2100 C   0  0  2  0  0  0  0  0  0  0  0  0
   -6.5581   -1.0636   -1.0046 C   0  0  0  0  0  0  0  0  0  0  0  0
   -6.4060   -2.1444   -1.6416 O   0  0  0  0  0  0  0  0  0  0  0  0
   -7.5889   -0.9231   -0.0043 N   0  0  0  0  0  0  0  0  0  0  0  0
   -8.5000   -1.9723    0.3516 C   0  0  2  0  0  0  0  0  0  0  0  0
   -9.9280   -1.5496    0.1799 C   0  0  0  0  0  0  0  0  0  0  0  0
  -10.7879   -2.4397    0.4624 O   0  0  0  0  0  0  0  0  0  0  0  0
  -10.2534   -0.2565   -0.2627 N   0  0  0  0  0  0  0  0  0  0  0  0
   -8.3117   -2.2427    1.8505 C   0  0  0  0  0  0  0  0  0  0  0  0
   -8.5903   -1.0321    2.6739 C   0  0  0  0  0  0  0  0  0  0  0  0
   -9.8357   -0.7356    3.1739 C   0  0  0  0  0  0  0  0  0  0  0  0
  -10.0654    0.3802    3.9364 C   0  0  0  0  0  0  0  0  0  0  0  0
   -9.0506    1.2667    4.2413 C   0  0  0  0  0  0  0  0  0  0  0  0
   -7.8010    0.9843    3.7486 C   0  0  0  0  0  0  0  0  0  0  0  0
   -7.5425   -0.1512    2.9664 C   0  0  0  0  0  0  0  0  0  0  0  0
   -6.6489    1.2830   -1.5620 C   0  0  0  0  0  0  0  0  0  0  0  0
   -7.2769    0.9674   -2.8766 C   0  0  0  0  0  0  0  0  0  0  0  0
   -6.7524    1.2110   -3.9819 O   0  0  0  0  0  0  0  0  0  0  0  0
   -8.5459    0.3546   -2.8761 O   0  0  0  0  0  0  0  0  0  0  0  0
   -4.0694   -1.4505   -6.3513 H   0  0  0  0  0  0  0  0  0  0  0  0
   -4.5336   -3.1686   -6.3018 H   0  0  0  0  0  0  0  0  0  0  0  0
   -4.6687   -2.2263   -4.7938 H   0  0  0  0  0  0  0  0  0  0  0  0
   -2.4876   -3.8531   -5.5784 H   0  0  0  0  0  0  0  0  0  0  0  0
   -1.9719   -2.2175   -6.0727 H   0  0  0  0  0  0  0  0  0  0  0  0
   -1.2259   -2.7419   -3.8223 H   0  0  0  0  0  0  0  0  0  0  0  0
   -2.9191   -2.9125   -3.2766 H   0  0  0  0  0  0  0  0  0  0  0  0
   -3.4442   -0.6664   -4.2674 H   0  0  0  0  0  0  0  0  0  0  0  0
   -1.8009   -0.4255   -4.8084 H   0  0  0  0  0  0  0  0  0  0  0  0
   -2.2053    0.9836   -3.1308 H   0  0  0  0  0  0  0  0  0  0  0  0
    1.5404   -1.7222   -1.2793 H   0  0  0  0  0  0  0  0  0  0  0  0
    1.8576   -2.5503    1.0321 H   0  0  0  0  0  0  0  0  0  0  0  0
    0.9613   -3.5573   -0.0854 H   0  0  0  0  0  0  0  0  0  0  0  0
   -1.3689   -4.3899    0.5972 H   0  0  0  0  0  0  0  0  0  0  0  0
   -2.7818   -4.2723    2.6815 H   0  0  0  0  0  0  0  0  0  0  0  0
    1.2238   -0.7489    2.9033 H   0  0  0  0  0  0  0  0  0  0  0  0
    0.4810    0.0261    5.1283 H   0  0  0  0  0  0  0  0  0  0  0  0
   -1.4883   -0.9596    6.2079 H   0  0  0  0  0  0  0  0  0  0  0  0
   -2.7710   -2.7617    5.0628 H   0  0  0  0  0  0  0  0  0  0  0  0
    0.5438    0.2250    0.8691 H   0  0  0  0  0  0  0  0  0  0  0  0
    1.7682    2.4068    0.4689 H   0  0  0  0  0  0  0  0  0  0  0  0
    2.5924    1.5287    1.7509 H   0  0  0  0  0  0  0  0  0  0  0  0
    3.7597    3.3770   -0.1231 H   0  0  0  0  0  0  0  0  0  0  0  0
    6.1180    3.0668   -1.0393 H   0  0  0  0  0  0  0  0  0  0  0  0
    7.8656    1.8159    1.1364 H   0  0  0  0  0  0  0  0  0  0  0  0
    9.9160    0.6420   -0.5479 H   0  0  0  0  0  0  0  0  0  0  0  0
   10.0028    2.1171    1.3108 H   0  0  0  0  0  0  0  0  0  0  0  0
   10.5877    3.5178    0.2773 H   0  0  0  0  0  0  0  0  0  0  0  0
   12.7104    3.4932   -0.7643 H   0  0  0  0  0  0  0  0  0  0  0  0
   15.0313    2.7931   -0.5485 H   0  0  0  0  0  0  0  0  0  0  0  0
   13.9056   -0.3648    2.1443 H   0  0  0  0  0  0  0  0  0  0  0  0
   11.5139    0.3687    1.9157 H   0  0  0  0  0  0  0  0  0  0  0  0
   16.6193    1.5128    0.7972 H   0  0  0  0  0  0  0  0  0  0  0  0
   11.5236    1.3970   -1.9643 H   0  0  0  0  0  0  0  0  0  0  0  0
   10.7545    2.9362   -2.2166 H   0  0  0  0  0  0  0  0  0  0  0  0
    7.0297    4.7398    0.3303 H   0  0  0  0  0  0  0  0  0  0  0  0
    6.4107    3.9199    1.8779 H   0  0  0  0  0  0  0  0  0  0  0  0
    5.2492    4.5109    0.6416 H   0  0  0  0  0  0  0  0  0  0  0  0
   -0.5813    1.7368   -2.6673 H   0  0  0  0  0  0  0  0  0  0  0  0
   -0.0656    1.4944   -1.0034 H   0  0  0  0  0  0  0  0  0  0  0  0
    0.8455    0.6984   -2.4157 H   0  0  0  0  0  0  0  0  0  0  0  0
   -4.9477   -0.0057   -3.2149 H   0  0  0  0  0  0  0  0  0  0  0  0
   -5.2553    0.3751   -0.2148 H   0  0  0  0  0  0  0  0  0  0  0  0
   -7.7076   -0.0101    0.5182 H   0  0  0  0  0  0  0  0  0  0  0  0
   -8.3233   -2.9204   -0.1656 H   0  0  0  0  0  0  0  0  0  0  0  0
  -11.1799    0.0020   -0.6762 H   0  0  0  0  0  0  0  0  0  0  0  0
   -9.5573    0.5001   -0.1848 H   0  0  0  0  0  0  0  0  0  0  0  0
   -7.2672   -2.5327    1.9984 H   0  0  0  0  0  0  0  0  0  0  0  0
   -8.9305   -3.1043    2.1583 H   0  0  0  0  0  0  0  0  0  0  0  0
  -10.6828   -1.3852    2.9825 H   0  0  0  0  0  0  0  0  0  0  0  0
  -11.0617    0.6032    4.3320 H   0  0  0  0  0  0  0  0  0  0  0  0
   -9.2906    2.1290    4.8469 H   0  0  0  0  0  0  0  0  0  0  0  0
   -6.9859    1.6582    3.9713 H   0  0  0  0  0  0  0  0  0  0  0  0
   -6.5421   -0.3322    2.6028 H   0  0  0  0  0  0  0  0  0  0  0  0
   -7.4237    1.4759   -0.8060 H   0  0  0  0  0  0  0  0  0  0  0  0
   -6.0547    2.2245   -1.7583 H   0  0  0  0  0  0  0  0  0  0  0  0
   -8.7457   -0.2224   -3.6890 H   0  0  0  0  0  0  0  0  0  0  0  0
  1  2  1  0
  2  3  1  0
  3  4  1  0
  4  5  1  0
  5  6  1  0
  6  7  1  0
  7  8  2  0
  7  9  1  0
  9 10  1  0
 10 11  1  0
 11 12  2  0
 12 13  1  0
 13 14  1  0
 14 15  2  0
 15 16  1  0
 16 17  2  0
 17 18  1  0
 18 19  2  0
  9 20  1  0
 20 21  1  0
 21 22  2  0
 21 23  1  0
 23 24  1  0
 24 25  1  0
 25 26  2  0
 25 27  1  0
 27 28  1  0
 28 29  1  0
 29 30  2  0
 29 31  1  0
 31 32  1  0
 32 33  1  0
 33 34  2  0
 34 35  1  0
 35 36  2  0
 36 37  1  0
 37 38  2  0
 36 39  1  0
 31 40  1  0
 27 41  1  0
  6 42  1  0
  5 43  1  0
 43 44  2  0
 43 45  1  0
 45 46  1  0
 46 47  1  0
 47 48  2  0
 47 49  1  0
 49 50  1  0
 50 51  1  0
 51 52  2  0
 51 53  1  0
 50 54  1  0
 54 55  1  0
 55 56  2  0
 56 57  1  0
 57 58  2  0
 58 59  1  0
 59 60  2  0
 46 61  1  0
 61 62  1  0
 62 63  2  0
 62 64  1  0
 15 11  1  0
 38 33  1  0
 60 55  1  0
 19 14  1  0
  1 65  1  0
  1 66  1  0
  1 67  1  0
  2 68  1  0
  2 69  1  0
  3 70  1  0
  3 71  1  0
  4 72  1  0
  4 73  1  0
  5 74  1  6
  9 75  1  6
 10 76  1  0
 10 77  1  0
 12 78  1  0
 13 79  1  0
 16 80  1  0
 17 81  1  0
 18 82  1  0
 19 83  1  0
 20 84  1  0
 23 85  1  0
 23 86  1  0
 24 87  1  0
 27 88  1  6
 28 89  1  0
 31 90  1  1
 32 91  1  0
 32 92  1  0
 34 93  1  0
 35 94  1  0
 37 95  1  0
 38 96  1  0
 39 97  1  0
 40 98  1  0
 40 99  1  0
 41100  1  0
 41101  1  0
 41102  1  0
 42103  1  0
 42104  1  0
 42105  1  0
 45106  1  0
 46107  1  1
 49108  1  0
 50109  1  6
 53110  1  0
 53111  1  0
 54112  1  0
 54113  1  0
 56114  1  0
 57115  1  0
 58116  1  0
 59117  1  0
 60118  1  0
 61119  1  0
 61120  1  0
 64121  1  0
M  END
>  <Ligand ID>  (1) 
LIG0004146

>  <Ligand>  (1) 
Tyr-D-Ala-Gly-Trp-NMeNle-Asp-Phe-NH2

>  <SMILES>  (1) 
CCCC[C@H](N(C(=O)[C@H](Cc1c[nH]c2c1cccc2)NC(=O)CNC(=O)[C@H](NC(=O)[C@H](Cc1ccc(cc1)O)N)C)C)C(=O)N[C@H](C(=O)N[C@H](C(=O)N)Cc1ccccc1)CC(=O)O

>  <CID>  (1) 
11040230.0

>  <ChEMBL ID>  (1) 
nan

>  <InChiKey>  (1) 
LFIFGNCFEBAIHA-XSAWFYHVSA-N

>  <InChi>  (1) 
InChI=1S/C45H57N9O10/c1-4-5-15-37(44(63)53-35(23-39(57)58)43(62)52-34(40(47)59)21-27-11-7-6-8-12-27)54(3)45(64)36(22-29-24-48-33-14-10-9-13-31(29)33)51-38(56)25-49-41(60)26(2)50-42(61)32(46)20-28-16-18-30(55)19-17-28/h6-14,16-19,24,26,32,34-37,48,55H,4-5,15,20-23,25,46H2,1-3H3,(H2,47,59)(H,49,60)(H,50,61)(H,51,56)(H,52,62)(H,53,63)(H,57,58)/t26-,32+,34+,35+,36+,37+/m1/s1

>  <IUPAC Name>  (1) 
(3S)-3-[[(2S)-2-[[(2S)-2-[[2-[[(2R)-2-[[(2S)-2-amino-3-(4-hydroxyphenyl)propanoyl]amino]propanoyl]amino]acetyl]amino]-3-(1H-indol-3-yl)propanoyl]-methylamino]hexanoyl]amino]-4-[[(2S)-1-amino-1-oxo-3-phenylpropan-2-yl]amino]-4-oxobutanoic acid

$$$$
