
     RDKit          3D

 68 73  0  0  0  0  0  0  0  0999 V2000
    1.6513    0.2137   -3.4157 C   0  0  0  0  0  0  0  0  0  0  0  0
    1.8111    0.3637   -2.0832 O   0  0  0  0  0  0  0  0  0  0  0  0
    0.8337   -0.0974   -1.2442 C   0  0  1  0  0  0  0  0  0  0  0  0
    0.6980   -1.6034   -1.4585 C   0  0  0  0  0  0  0  0  0  0  0  0
   -0.4270   -2.2098   -0.6303 C   0  0  0  0  0  0  0  0  0  0  0  0
   -1.0950   -1.1023    0.0857 C   0  0  0  0  0  0  0  0  0  0  0  0
   -0.0841   -0.4534    0.9889 C   0  0  0  0  0  0  0  0  0  0  0  0
    1.0067    0.2719    0.1709 C   0  0  1  0  0  0  0  0  0  0  0  0
    2.2478    0.0269    0.8999 C   0  0  2  0  0  0  0  0  0  0  0  0
    3.5435    0.5847    0.5161 C   0  0  0  0  0  0  0  0  0  0  0  0
    3.6058    2.0931    0.4505 C   0  0  0  0  0  0  0  0  0  0  0  0
    4.4782    0.2717    1.7317 C   0  0  0  0  0  0  0  0  0  0  0  0
    4.2023   -0.1175   -0.6308 C   0  0  0  0  0  0  0  0  0  0  0  0
    2.4123   -1.3807    0.9880 O   0  0  0  0  0  0  0  0  0  0  0  0
    2.0025    0.4721    2.3567 C   0  0  0  0  0  0  0  0  0  0  0  0
   -1.5727   -0.0943   -0.9156 C   0  0  0  0  0  0  0  0  0  0  0  0
   -0.4547    0.5052   -1.7451 C   0  0  1  0  0  0  0  0  0  0  0  0
   -0.5969    1.9008   -1.6190 O   0  0  0  0  0  0  0  0  0  0  0  0
   -1.3974    2.2292   -0.5122 C   0  0  0  0  0  0  0  0  0  0  0  0
   -1.9408    1.0623   -0.0660 C   0  0  0  0  0  0  0  0  0  0  0  0
   -2.7722    0.8874    0.9940 C   0  0  0  0  0  0  0  0  0  0  0  0
   -3.1931   -0.4670    1.3641 C   0  0  0  0  0  0  0  0  0  0  0  0
   -2.3135   -1.5503    0.8460 C   0  0  1  0  0  0  0  0  0  0  0  0
   -3.0248   -2.3597   -0.1604 N   0  0  0  0  0  0  0  0  0  0  0  0
   -3.5803   -1.5292   -1.1782 C   0  0  0  0  0  0  0  0  0  0  0  0
   -2.7095   -0.4983   -1.7623 C   0  0  0  0  0  0  0  0  0  0  0  0
   -3.9783   -3.2351    0.4209 C   0  0  0  0  0  0  0  0  0  0  0  0
   -3.1095    2.0434    1.6981 C   0  0  0  0  0  0  0  0  0  0  0  0
   -2.5839    3.2689    1.2811 C   0  0  0  0  0  0  0  0  0  0  0  0
   -1.7296    3.3710    0.1812 C   0  0  0  0  0  0  0  0  0  0  0  0
   -1.2026    4.5819   -0.2390 O   0  0  0  0  0  0  0  0  0  0  0  0
    1.5506   -0.8141   -3.7967 H   0  0  0  0  0  0  0  0  0  0  0  0
    2.6317    0.5694   -3.8844 H   0  0  0  0  0  0  0  0  0  0  0  0
    0.9126    0.9047   -3.9065 H   0  0  0  0  0  0  0  0  0  0  0  0
    0.3793   -1.7547   -2.5112 H   0  0  0  0  0  0  0  0  0  0  0  0
    1.6415   -2.1033   -1.2504 H   0  0  0  0  0  0  0  0  0  0  0  0
    0.0001   -2.9879    0.0456 H   0  0  0  0  0  0  0  0  0  0  0  0
   -1.1821   -2.7379   -1.2357 H   0  0  0  0  0  0  0  0  0  0  0  0
    0.3530   -1.3112    1.5648 H   0  0  0  0  0  0  0  0  0  0  0  0
   -0.5841    0.2011    1.6980 H   0  0  0  0  0  0  0  0  0  0  0  0
    0.7125    1.3633    0.2498 H   0  0  0  0  0  0  0  0  0  0  0  0
    2.6407    2.5377    0.1183 H   0  0  0  0  0  0  0  0  0  0  0  0
    4.4672    2.3754   -0.1968 H   0  0  0  0  0  0  0  0  0  0  0  0
    3.8006    2.5755    1.4321 H   0  0  0  0  0  0  0  0  0  0  0  0
    5.5224    0.3439    1.3132 H   0  0  0  0  0  0  0  0  0  0  0  0
    4.4238    1.0658    2.4814 H   0  0  0  0  0  0  0  0  0  0  0  0
    4.3559   -0.7483    2.0770 H   0  0  0  0  0  0  0  0  0  0  0  0
    3.7485   -1.0832   -0.9152 H   0  0  0  0  0  0  0  0  0  0  0  0
    5.2707   -0.4371   -0.3643 H   0  0  0  0  0  0  0  0  0  0  0  0
    4.4083    0.5568   -1.5135 H   0  0  0  0  0  0  0  0  0  0  0  0
    2.5556   -1.6876    1.8961 H   0  0  0  0  0  0  0  0  0  0  0  0
    1.0517    0.1493    2.7616 H   0  0  0  0  0  0  0  0  0  0  0  0
    2.7837    0.0625    3.0373 H   0  0  0  0  0  0  0  0  0  0  0  0
    1.9721    1.5828    2.3371 H   0  0  0  0  0  0  0  0  0  0  0  0
   -0.6410    0.2694   -2.8162 H   0  0  0  0  0  0  0  0  0  0  0  0
   -3.1625   -0.5347    2.4966 H   0  0  0  0  0  0  0  0  0  0  0  0
   -4.2589   -0.6044    1.0852 H   0  0  0  0  0  0  0  0  0  0  0  0
   -2.0024   -2.2466    1.6360 H   0  0  0  0  0  0  0  0  0  0  0  0
   -4.5599   -1.1074   -0.8466 H   0  0  0  0  0  0  0  0  0  0  0  0
   -3.8534   -2.2408   -2.0221 H   0  0  0  0  0  0  0  0  0  0  0  0
   -3.3487    0.4359   -1.9019 H   0  0  0  0  0  0  0  0  0  0  0  0
   -2.3445   -0.7658   -2.7983 H   0  0  0  0  0  0  0  0  0  0  0  0
   -4.3861   -2.9364    1.3998 H   0  0  0  0  0  0  0  0  0  0  0  0
   -3.6393   -4.2943    0.4865 H   0  0  0  0  0  0  0  0  0  0  0  0
   -4.8583   -3.2654   -0.2663 H   0  0  0  0  0  0  0  0  0  0  0  0
   -3.7697    1.9530    2.5476 H   0  0  0  0  0  0  0  0  0  0  0  0
   -2.8449    4.1828    1.8281 H   0  0  0  0  0  0  0  0  0  0  0  0
   -0.4744    5.0826    0.2555 H   0  0  0  0  0  0  0  0  0  0  0  0
  1  2  1  0
  3  2  1  6
  3  4  1  0
  4  5  1  0
  5  6  1  0
  6  7  1  0
  7  8  1  0
  8  9  1  0
  9 10  1  0
 10 11  1  0
 10 12  1  0
 10 13  1  0
  9 14  1  1
  9 15  1  0
  6 16  1  0
 16 17  1  0
 17 18  1  0
 18 19  1  0
 19 20  2  0
 20 21  1  0
 21 22  1  0
 22 23  1  0
 23 24  1  0
 24 25  1  0
 25 26  1  0
 24 27  1  0
 21 28  2  0
 28 29  1  0
 29 30  2  0
 30 31  1  0
  8  3  1  0
 26 16  1  0
 17  3  1  0
 30 19  1  0
 23  6  1  0
 20 16  1  0
  1 32  1  0
  1 33  1  0
  1 34  1  0
  4 35  1  0
  4 36  1  0
  5 37  1  0
  5 38  1  0
  7 39  1  0
  7 40  1  0
  8 41  1  6
 11 42  1  0
 11 43  1  0
 11 44  1  0
 12 45  1  0
 12 46  1  0
 12 47  1  0
 13 48  1  0
 13 49  1  0
 13 50  1  0
 14 51  1  0
 15 52  1  0
 15 53  1  0
 15 54  1  0
 17 55  1  6
 22 56  1  0
 22 57  1  0
 23 58  1  1
 25 59  1  0
 25 60  1  0
 26 61  1  0
 26 62  1  0
 27 63  1  0
 27 64  1  0
 27 65  1  0
 28 66  1  0
 29 67  1  0
 31 68  1  0
M  END
>  <Ligand ID>  (1) 
LIG0002124

>  <Ligand>  (1) 
CHEMBL169552

>  <SMILES>  (1) 
CO[C@@]12CCC3(C[C@H]1[C@](C(C)(C)C)(O)C)C14[C@H]2Oc2c4c(C[C@H]3N(CC1)C)ccc2O

>  <CID>  (1) 
44380504.0

>  <ChEMBL ID>  (1) 
nan

>  <InChiKey>  (1) 
APFIBTMKZJWVHH-LKUYZAFPSA-N

>  <InChi>  (1) 
InChI=1S/C26H37NO4/c1-22(2,3)23(4,29)17-14-24-9-10-26(17,30-6)21-25(24)11-12-27(5)18(24)13-15-7-8-16(28)20(31-21)19(15)25/h7-8,17-18,21,28-29H,9-14H2,1-6H3/t17-,18+,21+,23+,24?,25?,26-/m0/s1

>  <IUPAC Name>  (1) 
(6R,14R,15S,16S)-16-[(2R)-2-hydroxy-3,3-dimethylbutan-2-yl]-15-methoxy-5-methyl-13-oxa-5-azahexacyclo[13.2.2.12,8.01,6.02,14.012,20]icosa-8(20),9,11-trien-11-ol

$$$$
