
     RDKit          3D

 58 62  0  0  0  0  0  0  0  0999 V2000
    6.1085    1.7944   -1.7345 O   0  0  0  0  0  0  0  0  0  0  0  0
    5.6517    1.1301   -0.7644 C   0  0  0  0  0  0  0  0  0  0  0  0
    4.4234    0.4254   -0.8737 N   0  0  0  0  0  0  0  0  0  0  0  0
    3.8475   -0.3544    0.2036 C   0  0  0  0  0  0  0  0  0  0  0  0
    2.6130   -1.0617   -0.3691 C   0  0  2  0  0  0  0  0  0  0  0  0
    3.1583   -1.8590   -1.5622 C   0  0  0  0  0  0  0  0  0  0  0  0
    3.6504   -0.9489   -2.6481 C   0  0  0  0  0  0  0  0  0  0  0  0
    3.6919    0.4856   -2.1409 C   0  0  1  0  0  0  0  0  0  0  0  0
    2.2655    0.8336   -1.7867 C   0  0  0  0  0  0  0  0  0  0  0  0
    1.7152    0.0286   -0.8739 C   0  0  0  0  0  0  0  0  0  0  0  0
    0.3677    0.1711   -0.3900 C   0  0  0  0  0  0  0  0  0  0  0  0
   -0.4549    1.1747   -0.8515 C   0  0  0  0  0  0  0  0  0  0  0  0
   -1.7482    1.3087   -0.3851 C   0  0  0  0  0  0  0  0  0  0  0  0
   -2.2242    0.4311    0.5519 C   0  0  0  0  0  0  0  0  0  0  0  0
   -1.3703   -0.5789    1.0050 C   0  0  0  0  0  0  0  0  0  0  0  0
   -0.1019   -0.6889    0.5297 N   0  0  0  0  0  0  0  0  0  0  0  0
   -2.0750   -1.2932    1.9122 N   0  0  0  0  0  0  0  0  0  0  0  0
   -1.5744   -2.4590    2.6517 C   0  0  0  0  0  0  0  0  0  0  0  0
   -3.3191   -0.7418    2.0137 C   0  0  0  0  0  0  0  0  0  0  0  0
   -4.1718   -1.2328    2.8029 O   0  0  0  0  0  0  0  0  0  0  0  0
   -3.4234    0.3084    1.1914 N   0  0  0  0  0  0  0  0  0  0  0  0
   -4.5819    1.1308    1.0350 C   0  0  0  0  0  0  0  0  0  0  0  0
   -5.5441    0.6671   -0.0174 C   0  0  0  0  0  0  0  0  0  0  0  0
   -6.0968   -0.7092    0.2346 C   0  0  0  0  0  0  0  0  0  0  0  0
   -6.7461    1.6120   -0.0674 C   0  0  0  0  0  0  0  0  0  0  0  0
   -4.9380    0.6695   -1.3975 C   0  0  0  0  0  0  0  0  0  0  0  0
    6.4373    1.1236    0.4547 C   0  0  0  0  0  0  0  0  0  0  0  0
    6.3182    2.0396    1.4314 N   0  0  0  0  0  0  0  0  0  0  0  0
    7.1489    1.7874    2.4075 O   0  0  0  0  0  0  0  0  0  0  0  0
    7.8453    0.6975    2.1106 C   0  0  0  0  0  0  0  0  0  0  0  0
    7.4072    0.2547    0.8651 C   0  0  0  0  0  0  0  0  0  0  0  0
    3.5203    0.3368    1.0132 H   0  0  0  0  0  0  0  0  0  0  0  0
    4.5291   -1.1393    0.5889 H   0  0  0  0  0  0  0  0  0  0  0  0
    2.1297   -1.7255    0.3417 H   0  0  0  0  0  0  0  0  0  0  0  0
    2.4013   -2.5841   -1.9243 H   0  0  0  0  0  0  0  0  0  0  0  0
    4.0610   -2.3816   -1.1393 H   0  0  0  0  0  0  0  0  0  0  0  0
    4.6754   -1.2379   -2.9919 H   0  0  0  0  0  0  0  0  0  0  0  0
    2.9715   -1.0367   -3.5129 H   0  0  0  0  0  0  0  0  0  0  0  0
    4.1352    1.1727   -2.8591 H   0  0  0  0  0  0  0  0  0  0  0  0
    1.7728    1.6552   -2.2437 H   0  0  0  0  0  0  0  0  0  0  0  0
   -0.1368    1.8969   -1.5899 H   0  0  0  0  0  0  0  0  0  0  0  0
   -2.3698    2.0877   -0.7490 H   0  0  0  0  0  0  0  0  0  0  0  0
   -2.3853   -3.2415    2.5882 H   0  0  0  0  0  0  0  0  0  0  0  0
   -1.4442   -2.2670    3.7215 H   0  0  0  0  0  0  0  0  0  0  0  0
   -0.7082   -2.8788    2.1247 H   0  0  0  0  0  0  0  0  0  0  0  0
   -5.0886    1.3682    1.9981 H   0  0  0  0  0  0  0  0  0  0  0  0
   -4.2048    2.1329    0.6785 H   0  0  0  0  0  0  0  0  0  0  0  0
   -7.0251   -0.8899   -0.3776 H   0  0  0  0  0  0  0  0  0  0  0  0
   -6.4258   -0.8820    1.2800 H   0  0  0  0  0  0  0  0  0  0  0  0
   -5.3808   -1.5123   -0.0344 H   0  0  0  0  0  0  0  0  0  0  0  0
   -7.3910    1.3963   -0.9194 H   0  0  0  0  0  0  0  0  0  0  0  0
   -6.4616    2.6668    0.0176 H   0  0  0  0  0  0  0  0  0  0  0  0
   -7.3649    1.3739    0.8439 H   0  0  0  0  0  0  0  0  0  0  0  0
   -4.1920   -0.1525   -1.5433 H   0  0  0  0  0  0  0  0  0  0  0  0
   -5.7306    0.4741   -2.1767 H   0  0  0  0  0  0  0  0  0  0  0  0
   -4.5293    1.6616   -1.6807 H   0  0  0  0  0  0  0  0  0  0  0  0
    8.6203    0.2136    2.7056 H   0  0  0  0  0  0  0  0  0  0  0  0
    7.7423   -0.6011    0.3019 H   0  0  0  0  0  0  0  0  0  0  0  0
  1  2  2  0
  2  3  1  0
  3  4  1  0
  4  5  1  0
  5  6  1  0
  6  7  1  0
  7  8  1  0
  8  9  1  0
  9 10  2  0
 10 11  1  0
 11 12  1  0
 12 13  2  0
 13 14  1  0
 14 15  2  0
 15 16  1  0
 15 17  1  0
 17 18  1  0
 17 19  1  0
 19 20  2  0
 19 21  1  0
 21 22  1  0
 22 23  1  0
 23 24  1  0
 23 25  1  0
 23 26  1  0
  2 27  1  0
 27 28  2  0
 28 29  1  0
 29 30  1  0
 30 31  2  0
  8  3  1  0
 16 11  2  0
 31 27  1  0
 10  5  1  0
 21 14  1  0
  4 32  1  0
  4 33  1  0
  5 34  1  1
  6 35  1  0
  6 36  1  0
  7 37  1  0
  7 38  1  0
  8 39  1  6
  9 40  1  0
 12 41  1  0
 13 42  1  0
 18 43  1  0
 18 44  1  0
 18 45  1  0
 22 46  1  0
 22 47  1  0
 24 48  1  0
 24 49  1  0
 24 50  1  0
 25 51  1  0
 25 52  1  0
 25 53  1  0
 26 54  1  0
 26 55  1  0
 26 56  1  0
 30 57  1  0
 31 58  1  0
M  END
>  <Ligand ID>  (1) 
LIG0000900

>  <Ligand>  (1) 
CHEMBL3805139

>  <SMILES>  (1) 
O=C(N1C[C@@H]2CC[C@H]1C=C2c1ccc2c(n1)n(C)c(=O)n2CC(C)(C)C)c1nocc1

>  <CID>  (1) 
71479388.0

>  <ChEMBL ID>  (1) 
nan

>  <InChiKey>  (1) 
QMGWNCFCWXUZEI-GJZGRUSLSA-N

>  <InChi>  (1) 
InChI=1S/C23H27N5O3/c1-23(2,3)13-28-19-8-7-17(24-20(19)26(4)22(28)30)16-11-15-6-5-14(16)12-27(15)21(29)18-9-10-31-25-18/h7-11,14-15H,5-6,12-13H2,1-4H3/t14-,15-/m0/s1

>  <IUPAC Name>  (1) 
1-(2,2-dimethylpropyl)-3-methyl-5-[(1S,4R)-2-(1,2-oxazole-3-carbonyl)-2-azabicyclo[2.2.2]oct-5-en-5-yl]imidazo[4,5-b]pyridin-2-one

$$$$
