
     RDKit          3D

 59 62  0  0  0  0  0  0  0  0999 V2000
    6.7760    0.9331    0.0294 C   0  0  0  0  0  0  0  0  0  0  0  0
    5.5405    0.2271   -0.1136 N   0  0  0  0  0  0  0  0  0  0  0  0
    4.6485    0.3746    0.9926 C   0  0  0  0  0  0  0  0  0  0  0  0
    3.2236    0.6595    0.6197 C   0  0  0  0  0  0  0  0  0  0  0  0
    2.8376   -0.3371   -0.3605 N   0  0  0  0  0  0  0  0  0  0  0  0
    3.7327   -0.5648   -1.4773 C   0  0  0  0  0  0  0  0  0  0  0  0
    4.8944    0.4283   -1.3943 C   0  0  0  0  0  0  0  0  0  0  0  0
    1.6349   -1.0910   -0.2747 C   0  0  0  0  0  0  0  0  0  0  0  0
    1.6633   -2.4305   -0.1966 N   0  0  0  0  0  0  0  0  0  0  0  0
    0.4877   -3.1057   -0.1163 C   0  0  0  0  0  0  0  0  0  0  0  0
    0.5928   -4.5903   -0.0322 C   0  0  0  0  0  0  0  0  0  0  0  0
   -0.7035   -2.4934   -0.1116 N   0  0  0  0  0  0  0  0  0  0  0  0
   -0.7818   -1.1631   -0.1875 C   0  0  0  0  0  0  0  0  0  0  0  0
    0.3970   -0.4640   -0.2693 C   0  0  0  0  0  0  0  0  0  0  0  0
    0.0929    0.8079   -0.3341 N   0  0  0  0  0  0  0  0  0  0  0  0
   -1.2471    0.9968   -0.2990 C   0  0  0  0  0  0  0  0  0  0  0  0
   -1.7799   -0.2307   -0.2090 N   0  0  0  0  0  0  0  0  0  0  0  0
   -3.1624   -0.5949   -0.1646 C   0  0  0  0  0  0  0  0  0  0  0  0
   -3.6776   -0.6999    1.2391 C   0  0  0  0  0  0  0  0  0  0  0  0
   -5.0832   -1.2645    1.2728 C   0  0  0  0  0  0  0  0  0  0  0  0
   -5.2818   -2.3475    0.4587 O   0  0  0  0  0  0  0  0  0  0  0  0
   -4.8106   -2.2146   -0.8442 C   0  0  0  0  0  0  0  0  0  0  0  0
   -3.2990   -2.0467   -0.7159 C   0  0  0  0  0  0  0  0  0  0  0  0
   -1.8273    2.3223   -0.3835 C   0  0  0  0  0  0  0  0  0  0  0  0
   -3.1215    2.6671   -0.1422 C   0  0  0  0  0  0  0  0  0  0  0  0
   -3.6035    3.9799   -0.2897 C   0  0  0  0  0  0  0  0  0  0  0  0
   -2.7736    4.9832   -0.6889 C   0  0  0  0  0  0  0  0  0  0  0  0
   -1.4588    4.6610   -0.9387 C   0  0  0  0  0  0  0  0  0  0  0  0
   -0.9958    3.3741   -0.7922 C   0  0  0  0  0  0  0  0  0  0  0  0
    0.7047    3.1051   -1.1460 Cl  0  0  0  0  0  0  0  0  0  0  0  0
    0.6890    0.0000    0.0000 Cl  0  0  0  0  0  0  0  0  0  0  0  0
    7.0739    1.4854   -0.8700 H   0  0  0  0  0  0  0  0  0  0  0  0
    6.6696    1.6101    0.9035 H   0  0  0  0  0  0  0  0  0  0  0  0
    7.6206    0.2403    0.2756 H   0  0  0  0  0  0  0  0  0  0  0  0
    5.0601    1.2227    1.6102 H   0  0  0  0  0  0  0  0  0  0  0  0
    4.6501   -0.5337    1.6332 H   0  0  0  0  0  0  0  0  0  0  0  0
    3.1043    1.6736    0.1899 H   0  0  0  0  0  0  0  0  0  0  0  0
    2.6187    0.5990    1.5360 H   0  0  0  0  0  0  0  0  0  0  0  0
    4.2039   -1.5723   -1.4255 H   0  0  0  0  0  0  0  0  0  0  0  0
    3.2267   -0.4825   -2.4581 H   0  0  0  0  0  0  0  0  0  0  0  0
    5.5536    0.1768   -2.2273 H   0  0  0  0  0  0  0  0  0  0  0  0
    4.5329    1.4616   -1.4595 H   0  0  0  0  0  0  0  0  0  0  0  0
    1.3499   -4.8201    0.7477 H   0  0  0  0  0  0  0  0  0  0  0  0
    1.0197   -4.9397   -0.9994 H   0  0  0  0  0  0  0  0  0  0  0  0
   -0.3918   -5.0063    0.1948 H   0  0  0  0  0  0  0  0  0  0  0  0
   -3.7587    0.0585   -0.8236 H   0  0  0  0  0  0  0  0  0  0  0  0
   -3.6564    0.2640    1.7380 H   0  0  0  0  0  0  0  0  0  0  0  0
   -3.0402   -1.4341    1.7736 H   0  0  0  0  0  0  0  0  0  0  0  0
   -5.8306   -0.4369    1.1393 H   0  0  0  0  0  0  0  0  0  0  0  0
   -5.2320   -1.6179    2.3180 H   0  0  0  0  0  0  0  0  0  0  0  0
   -5.2783   -1.4186   -1.4236 H   0  0  0  0  0  0  0  0  0  0  0  0
   -4.9810   -3.1914   -1.3344 H   0  0  0  0  0  0  0  0  0  0  0  0
   -2.7899   -2.1527   -1.6777 H   0  0  0  0  0  0  0  0  0  0  0  0
   -2.9745   -2.7053    0.0831 H   0  0  0  0  0  0  0  0  0  0  0  0
   -3.8528    1.9697    0.1926 H   0  0  0  0  0  0  0  0  0  0  0  0
   -4.6371    4.2137   -0.0894 H   0  0  0  0  0  0  0  0  0  0  0  0
   -3.0862    6.0082   -0.8194 H   0  0  0  0  0  0  0  0  0  0  0  0
   -0.7935    5.4468   -1.2555 H   0  0  0  0  0  0  0  0  0  0  0  0
   -0.6890    0.0000    0.0000 H   0  0  0  0  0  0  0  0  0  0  0  0
  1  2  1  0
  2  3  1  0
  3  4  1  0
  4  5  1  0
  5  6  1  0
  6  7  1  0
  5  8  1  0
  8  9  2  0
  9 10  1  0
 10 11  1  0
 10 12  2  0
 12 13  1  0
 13 14  2  0
 14 15  1  0
 15 16  2  0
 16 17  1  0
 17 18  1  0
 18 19  1  0
 19 20  1  0
 20 21  1  0
 21 22  1  0
 22 23  1  0
 16 24  1  0
 24 25  2  0
 25 26  1  0
 26 27  2  0
 27 28  1  0
 28 29  2  0
 29 30  1  0
  7  2  1  0
 14  8  1  0
 23 18  1  0
 29 24  1  0
 17 13  1  0
  1 32  1  0
  1 33  1  0
  1 34  1  0
  3 35  1  0
  3 36  1  0
  4 37  1  0
  4 38  1  0
  6 39  1  0
  6 40  1  0
  7 41  1  0
  7 42  1  0
 11 43  1  0
 11 44  1  0
 11 45  1  0
 18 46  1  0
 19 47  1  0
 19 48  1  0
 20 49  1  0
 20 50  1  0
 22 51  1  0
 22 52  1  0
 23 53  1  0
 23 54  1  0
 25 55  1  0
 26 56  1  0
 27 57  1  0
 28 58  1  0
 31 59  1  0
M  END
>  <Ligand ID>  (1) 
LIG0003928

>  <Ligand>  (1) 
SCHEMBL3340740

>  <SMILES>  (1) 
CN1CCN(CC1)c1nc(C)nc2c1nc(n2C1CCOCC1)c1ccccc1Cl.Cl

>  <CID>  (1) 
68604012.0

>  <ChEMBL ID>  (1) 
nan

>  <InChiKey>  (1) 
UBHKKVDJYFNWRM-UHFFFAOYSA-N

>  <InChi>  (1) 
InChI=1S/C22H27ClN6O.ClH/c1-15-24-21(28-11-9-27(2)10-12-28)19-22(25-15)29(16-7-13-30-14-8-16)20(26-19)17-5-3-4-6-18(17)23;/h3-6,16H,7-14H2,1-2H3;1H

>  <IUPAC Name>  (1) 
8-(2-chlorophenyl)-2-methyl-6-(4-methylpiperazin-1-yl)-9-(oxan-4-yl)purine;hydrochloride

$$$$
