
     RDKit          3D

 36 37  0  0  0  0  0  0  0  0999 V2000
   -3.0644   -0.7936   -3.1090 O   0  0  0  0  0  0  0  0  0  0  0  0
   -1.8385   -0.3036   -2.6472 C   0  0  0  0  0  0  0  0  0  0  0  0
   -0.8962   -0.3134   -3.4628 O   0  0  0  0  0  0  0  0  0  0  0  0
   -1.7873    0.1685   -1.2598 C   0  0  1  0  0  0  0  0  0  0  0  0
   -2.2183   -0.8398   -0.2328 C   0  0  0  0  0  0  0  0  0  0  0  0
   -1.8033   -0.1453    1.0458 C   0  0  2  0  0  0  0  0  0  0  0  0
   -0.8026    0.9220    0.5933 C   0  0  0  0  0  0  0  0  0  0  0  0
   -0.5069    0.5960   -0.7847 N   0  0  0  0  0  0  0  0  0  0  0  0
    0.5201   -0.3913   -0.8882 C   0  0  0  0  0  0  0  0  0  0  0  0
    1.8256    0.0720   -0.2910 C   0  0  0  0  0  0  0  0  0  0  0  0
    2.1883   -0.2076    0.9994 C   0  0  0  0  0  0  0  0  0  0  0  0
    3.3898    0.2568    1.4779 C   0  0  0  0  0  0  0  0  0  0  0  0
    4.2302    1.0073    0.6492 C   0  0  0  0  0  0  0  0  0  0  0  0
    3.8430    1.2782   -0.6547 C   0  0  0  0  0  0  0  0  0  0  0  0
    2.6272    0.8152   -1.1571 C   0  0  0  0  0  0  0  0  0  0  0  0
    5.4575    1.4779    1.1479 O   0  0  0  0  0  0  0  0  0  0  0  0
   -1.1877   -1.0371    2.0061 N   0  0  0  0  0  0  0  0  0  0  0  0
   -3.0287    0.4962    1.6087 C   0  0  0  0  0  0  0  0  0  0  0  0
   -3.4205    0.2397    2.7952 O   0  0  0  0  0  0  0  0  0  0  0  0
   -3.7445    1.3792    0.8293 O   0  0  0  0  0  0  0  0  0  0  0  0
   -3.2099   -0.8959   -4.1226 H   0  0  0  0  0  0  0  0  0  0  0  0
   -2.4731    1.0493   -1.1015 H   0  0  0  0  0  0  0  0  0  0  0  0
   -1.7160   -1.8102   -0.2841 H   0  0  0  0  0  0  0  0  0  0  0  0
   -3.3436   -0.9717   -0.2459 H   0  0  0  0  0  0  0  0  0  0  0  0
   -1.3843    1.8908    0.5521 H   0  0  0  0  0  0  0  0  0  0  0  0
    0.0657    0.9968    1.2446 H   0  0  0  0  0  0  0  0  0  0  0  0
    0.7315   -0.7324   -1.9230 H   0  0  0  0  0  0  0  0  0  0  0  0
    0.2213   -1.3385   -0.3419 H   0  0  0  0  0  0  0  0  0  0  0  0
    1.5671   -0.7841    1.6485 H   0  0  0  0  0  0  0  0  0  0  0  0
    3.7218    0.0662    2.4817 H   0  0  0  0  0  0  0  0  0  0  0  0
    4.4839    1.8640   -1.3237 H   0  0  0  0  0  0  0  0  0  0  0  0
    2.3415    1.0349   -2.1731 H   0  0  0  0  0  0  0  0  0  0  0  0
    6.3271    1.3336    0.6722 H   0  0  0  0  0  0  0  0  0  0  0  0
   -0.5877   -0.4815    2.6569 H   0  0  0  0  0  0  0  0  0  0  0  0
   -1.8711   -1.6077    2.5121 H   0  0  0  0  0  0  0  0  0  0  0  0
   -4.6572    1.7412    1.0821 H   0  0  0  0  0  0  0  0  0  0  0  0
  1  2  1  0
  2  3  2  0
  2  4  1  0
  4  5  1  0
  5  6  1  0
  6  7  1  0
  7  8  1  0
  8  9  1  0
  9 10  1  0
 10 11  2  0
 11 12  1  0
 12 13  2  0
 13 14  1  0
 14 15  2  0
 13 16  1  0
  6 17  1  1
  6 18  1  0
 18 19  2  0
 18 20  1  0
  8  4  1  0
 15 10  1  0
  1 21  1  0
  4 22  1  6
  5 23  1  0
  5 24  1  0
  7 25  1  0
  7 26  1  0
  9 27  1  0
  9 28  1  0
 11 29  1  0
 12 30  1  0
 14 31  1  0
 15 32  1  0
 16 33  1  0
 17 34  1  0
 17 35  1  0
 20 36  1  0
M  END
>  <Ligand ID>  (1) 
LIG0002407

>  <Ligand>  (1) 
CHEMBL543568

>  <SMILES>  (1) 
OC(=O)[C@H]1C[C@](CN1Cc1ccc(cc1)O)(N)C(=O)O

>  <CID>  (1) 
44300605.0

>  <ChEMBL ID>  (1) 
nan

>  <InChiKey>  (1) 
HILSLIXNOLWXBU-ZWNOBZJWSA-N

>  <InChi>  (1) 
InChI=1S/C13H16N2O5/c14-13(12(19)20)5-10(11(17)18)15(7-13)6-8-1-3-9(16)4-2-8/h1-4,10,16H,5-7,14H2,(H,17,18)(H,19,20)/t10-,13-/m1/s1

>  <IUPAC Name>  (1) 
(2R,4R)-4-amino-1-[(4-hydroxyphenyl)methyl]pyrrolidine-2,4-dicarboxylic acid

$$$$
