
     RDKit          3D

 87 91  0  0  0  0  0  0  0  0999 V2000
   -3.2078   -2.8291   -0.5833 O   0  0  0  0  0  0  0  0  0  0  0  0
   -3.7978   -1.7749   -0.9033 C   0  0  0  0  0  0  0  0  0  0  0  0
   -5.0075   -1.8911   -1.7435 C   0  0  0  0  0  0  0  0  0  0  0  0
   -6.0451   -2.6882   -0.9730 C   0  0  0  0  0  0  0  0  0  0  0  0
   -7.4488   -2.2186   -1.3432 C   0  0  0  0  0  0  0  0  0  0  0  0
   -7.5264   -1.8761   -2.8143 C   0  0  0  0  0  0  0  0  0  0  0  0
   -6.5052   -0.8575   -3.2136 C   0  0  0  0  0  0  0  0  0  0  0  0
   -5.6201   -0.6239   -2.0743 N   0  0  0  0  0  0  0  0  0  0  0  0
   -3.2791   -0.5245   -0.4451 N   0  0  0  0  0  0  0  0  0  0  0  0
   -2.0789   -0.5821    0.3759 C   0  0  1  0  0  0  0  0  0  0  0  0
   -1.0599    0.2221   -0.3363 C   0  0  0  0  0  0  0  0  0  0  0  0
   -1.4615    0.7952   -1.4078 O   0  0  0  0  0  0  0  0  0  0  0  0
    0.2892    0.3639    0.1202 N   0  0  0  0  0  0  0  0  0  0  0  0
    0.8826   -0.2431    1.3254 C   0  0  0  0  0  0  0  0  0  0  0  0
    2.3375   -0.4406    0.8173 C   0  0  2  0  0  0  0  0  0  0  0  0
    2.5786    0.8510    0.0273 C   0  0  0  0  0  0  0  0  0  0  0  0
    1.2826    1.1450   -0.5724 C   0  0  2  0  0  0  0  0  0  0  0  0
    0.8837    2.4942   -0.9537 C   0  0  0  0  0  0  0  0  0  0  0  0
    0.4324    3.4924    0.0122 C   0  0  0  0  0  0  0  0  0  0  0  0
    1.3812    3.8759    1.1135 C   0  0  0  0  0  0  0  0  0  0  0  0
    2.6062    4.3789    0.5416 N   0  0  0  0  0  0  0  0  0  0  0  0
    2.8955    5.6194    0.3930 C   0  0  0  0  0  0  0  0  0  0  0  0
    4.1412    5.9546   -0.1861 N   0  0  0  0  0  0  0  0  0  0  0  0
    1.9944    6.6352    0.7966 N   0  0  0  0  0  0  0  0  0  0  0  0
    2.3320   -1.4552   -0.1077 O   0  0  0  0  0  0  0  0  0  0  0  0
    3.2051   -2.4617    0.1605 C   0  0  0  0  0  0  0  0  0  0  0  0
    4.5937   -1.9746    0.1888 C   0  0  0  0  0  0  0  0  0  0  0  0
    5.2979   -1.6378    1.3142 C   0  0  0  0  0  0  0  0  0  0  0  0
    6.5952   -1.1751    1.2411 C   0  0  0  0  0  0  0  0  0  0  0  0
    7.2092   -1.0448    0.0081 C   0  0  0  0  0  0  0  0  0  0  0  0
    6.5323   -1.3751   -1.1472 C   0  0  0  0  0  0  0  0  0  0  0  0
    5.2387   -1.8335   -1.0438 C   0  0  0  0  0  0  0  0  0  0  0  0
    7.1030   -1.2651   -2.4076 C   0  0  0  0  0  0  0  0  0  0  0  0
    8.4159   -0.8021   -2.5285 C   0  0  0  0  0  0  0  0  0  0  0  0
    9.0940   -0.4707   -1.3686 C   0  0  0  0  0  0  0  0  0  0  0  0
    8.5083   -0.5874   -0.1222 C   0  0  0  0  0  0  0  0  0  0  0  0
   -2.3524   -0.0312    1.7620 C   0  0  0  0  0  0  0  0  0  0  0  0
   -3.4390   -0.8625    2.3999 C   0  0  0  0  0  0  0  0  0  0  0  0
   -3.1077   -1.9710    3.1404 C   0  0  0  0  0  0  0  0  0  0  0  0
   -4.0911   -2.7415    3.7219 C   0  0  0  0  0  0  0  0  0  0  0  0
   -5.4198   -2.3658    3.5379 C   0  0  0  0  0  0  0  0  0  0  0  0
   -5.7413   -1.2580    2.7973 C   0  0  0  0  0  0  0  0  0  0  0  0
   -4.7669   -0.4784    2.2103 C   0  0  0  0  0  0  0  0  0  0  0  0
   -4.8320   -2.4186   -2.7049 H   0  0  0  0  0  0  0  0  0  0  0  0
   -5.9510   -2.5496    0.1268 H   0  0  0  0  0  0  0  0  0  0  0  0
   -5.9775   -3.7675   -1.1860 H   0  0  0  0  0  0  0  0  0  0  0  0
   -8.1232   -3.0688   -1.1635 H   0  0  0  0  0  0  0  0  0  0  0  0
   -7.6718   -1.3227   -0.7388 H   0  0  0  0  0  0  0  0  0  0  0  0
   -8.5429   -1.4194   -2.9734 H   0  0  0  0  0  0  0  0  0  0  0  0
   -7.5000   -2.7982   -3.4412 H   0  0  0  0  0  0  0  0  0  0  0  0
   -6.9557    0.0888   -3.5784 H   0  0  0  0  0  0  0  0  0  0  0  0
   -5.8799   -1.3238   -4.0284 H   0  0  0  0  0  0  0  0  0  0  0  0
   -4.8980    0.0959   -2.3084 H   0  0  0  0  0  0  0  0  0  0  0  0
   -3.7379    0.3761   -0.6862 H   0  0  0  0  0  0  0  0  0  0  0  0
   -1.7314   -1.6218    0.5182 H   0  0  0  0  0  0  0  0  0  0  0  0
    0.8391    0.3848    2.2031 H   0  0  0  0  0  0  0  0  0  0  0  0
    0.4223   -1.2426    1.4210 H   0  0  0  0  0  0  0  0  0  0  0  0
    3.0181   -0.5310    1.6541 H   0  0  0  0  0  0  0  0  0  0  0  0
    3.3960    0.6556   -0.7359 H   0  0  0  0  0  0  0  0  0  0  0  0
    2.9822    1.5436    0.7886 H   0  0  0  0  0  0  0  0  0  0  0  0
    1.3298    0.5687   -1.6022 H   0  0  0  0  0  0  0  0  0  0  0  0
    1.7837    2.9498   -1.4900 H   0  0  0  0  0  0  0  0  0  0  0  0
    0.1425    2.4306   -1.8153 H   0  0  0  0  0  0  0  0  0  0  0  0
    0.2353    4.4687   -0.5396 H   0  0  0  0  0  0  0  0  0  0  0  0
   -0.5537    3.2825    0.4882 H   0  0  0  0  0  0  0  0  0  0  0  0
    1.5677    3.0225    1.7591 H   0  0  0  0  0  0  0  0  0  0  0  0
    0.9050    4.7234    1.7219 H   0  0  0  0  0  0  0  0  0  0  0  0
    4.4772    5.4356   -1.0478 H   0  0  0  0  0  0  0  0  0  0  0  0
    4.7391    6.7094    0.2226 H   0  0  0  0  0  0  0  0  0  0  0  0
    1.5692    7.2081    0.0168 H   0  0  0  0  0  0  0  0  0  0  0  0
    1.7487    6.8255    1.8030 H   0  0  0  0  0  0  0  0  0  0  0  0
    3.0838   -3.3088   -0.5811 H   0  0  0  0  0  0  0  0  0  0  0  0
    3.0073   -2.9007    1.1782 H   0  0  0  0  0  0  0  0  0  0  0  0
    4.8746   -1.7340    2.2996 H   0  0  0  0  0  0  0  0  0  0  0  0
    7.1352   -0.9118    2.1597 H   0  0  0  0  0  0  0  0  0  0  0  0
    4.7140   -2.0902   -1.9725 H   0  0  0  0  0  0  0  0  0  0  0  0
    6.5477   -1.5312   -3.2915 H   0  0  0  0  0  0  0  0  0  0  0  0
    8.8186   -0.7321   -3.5107 H   0  0  0  0  0  0  0  0  0  0  0  0
   10.1127   -0.1126   -1.4813 H   0  0  0  0  0  0  0  0  0  0  0  0
    9.0689   -0.3196    0.7608 H   0  0  0  0  0  0  0  0  0  0  0  0
   -2.5936    1.0384    1.7601 H   0  0  0  0  0  0  0  0  0  0  0  0
   -1.4665   -0.1796    2.4036 H   0  0  0  0  0  0  0  0  0  0  0  0
   -2.0712   -2.2520    3.2775 H   0  0  0  0  0  0  0  0  0  0  0  0
   -3.8834   -3.6234    4.3119 H   0  0  0  0  0  0  0  0  0  0  0  0
   -6.2413   -2.9352    3.9749 H   0  0  0  0  0  0  0  0  0  0  0  0
   -6.7814   -0.9880    2.6680 H   0  0  0  0  0  0  0  0  0  0  0  0
   -5.0003    0.3882    1.6296 H   0  0  0  0  0  0  0  0  0  0  0  0
  1  2  2  0
  2  3  1  0
  3  4  1  0
  4  5  1  0
  5  6  1  0
  6  7  1  0
  7  8  1  0
  2  9  1  0
  9 10  1  0
 10 11  1  0
 11 12  2  0
 11 13  1  0
 13 14  1  0
 14 15  1  0
 15 16  1  0
 16 17  1  0
 17 18  1  0
 18 19  1  0
 19 20  1  0
 20 21  1  0
 21 22  2  3
 22 23  1  0
 22 24  1  0
 15 25  1  0
 25 26  1  0
 26 27  1  0
 27 28  2  0
 28 29  1  0
 29 30  2  0
 30 31  1  0
 31 32  2  0
 31 33  1  0
 33 34  2  0
 34 35  1  0
 35 36  2  0
 10 37  1  0
 37 38  1  0
 38 39  2  0
 39 40  1  0
 40 41  2  0
 41 42  1  0
 42 43  2  0
  8  3  1  0
 17 13  1  0
 32 27  1  0
 43 38  1  0
 36 30  1  0
  3 44  1  0
  4 45  1  0
  4 46  1  0
  5 47  1  0
  5 48  1  0
  6 49  1  0
  6 50  1  0
  7 51  1  0
  7 52  1  0
  8 53  1  0
  9 54  1  0
 10 55  1  1
 14 56  1  0
 14 57  1  0
 15 58  1  1
 16 59  1  0
 16 60  1  0
 17 61  1  6
 18 62  1  0
 18 63  1  0
 19 64  1  0
 19 65  1  0
 20 66  1  0
 20 67  1  0
 23 68  1  0
 23 69  1  0
 24 70  1  0
 24 71  1  0
 26 72  1  0
 26 73  1  0
 28 74  1  0
 29 75  1  0
 32 76  1  0
 33 77  1  0
 34 78  1  0
 35 79  1  0
 36 80  1  0
 37 81  1  0
 37 82  1  0
 39 83  1  0
 40 84  1  0
 41 85  1  0
 42 86  1  0
 43 87  1  0
M  END
>  <Ligand ID>  (1) 
LIG0003116

>  <Ligand>  (1) 
CHEMBL210011

>  <SMILES>  (1) 
O=C(C1CCCCN1)N[C@@H](C(=O)N1C[C@H](C[C@@H]1CCCN=C(N)N)OCc1ccc2c(c1)cccc2)Cc1ccccc1

>  <CID>  (1) 
44413829.0

>  <ChEMBL ID>  (1) 
nan

>  <InChiKey>  (1) 
AIBOPTDBFGOAQA-ZELYBYEASA-N

>  <InChi>  (1) 
InChI=1S/C34H44N6O3/c35-34(36)38-18-8-13-28-21-29(43-23-25-15-16-26-11-4-5-12-27(26)19-25)22-40(28)33(42)31(20-24-9-2-1-3-10-24)39-32(41)30-14-6-7-17-37-30/h1-5,9-12,15-16,19,28-31,37H,6-8,13-14,17-18,20-23H2,(H,39,41)(H4,35,36,38)/t28-,29-,30?,31+/m0/s1

>  <IUPAC Name>  (1) 
N-[(2R)-1-[(2S,4S)-2-[3-(diaminomethylideneamino)propyl]-4-(naphthalen-2-ylmethoxy)pyrrolidin-1-yl]-1-oxo-3-phenylpropan-2-yl]piperidine-2-carboxamide

$$$$
