
     RDKit          3D

 58 60  0  0  0  0  0  0  0  0999 V2000
    1.6943   -2.1179   -1.9471 C   0  0  0  0  0  0  0  0  0  0  0  0
    1.9255   -0.7554   -1.6472 O   0  0  0  0  0  0  0  0  0  0  0  0
    0.9692    0.0973   -1.1443 C   0  0  0  0  0  0  0  0  0  0  0  0
   -0.3311   -0.2839   -0.8743 C   0  0  0  0  0  0  0  0  0  0  0  0
   -1.2684    0.5781   -0.3742 C   0  0  0  0  0  0  0  0  0  0  0  0
   -2.5707    0.2916   -0.0782 O   0  0  0  0  0  0  0  0  0  0  0  0
   -3.1720   -0.9473   -0.2400 C   0  0  0  0  0  0  0  0  0  0  0  0
   -3.5835   -1.4489    1.1291 C   0  0  0  0  0  0  0  0  0  0  0  0
   -4.5689   -0.4700    1.6941 C   0  0  0  0  0  0  0  0  0  0  0  0
   -5.7838   -0.4343    0.8295 C   0  0  0  0  0  0  0  0  0  0  0  0
   -5.5365   -0.2113   -0.6225 C   0  0  0  0  0  0  0  0  0  0  0  0
   -4.3486   -0.9156   -1.1925 C   0  0  0  0  0  0  0  0  0  0  0  0
   -6.6399    0.7430    1.3123 C   0  0  0  0  0  0  0  0  0  0  0  0
   -6.6038   -1.6772    1.0639 C   0  0  0  0  0  0  0  0  0  0  0  0
   -0.8406    1.8901   -0.1442 C   0  0  0  0  0  0  0  0  0  0  0  0
    0.4444    2.2997   -0.4022 C   0  0  0  0  0  0  0  0  0  0  0  0
    1.3715    1.4119   -0.9063 C   0  0  0  0  0  0  0  0  0  0  0  0
    2.7482    1.8601   -1.1805 C   0  0  0  0  0  0  0  0  0  0  0  0
    3.7007    1.4099   -0.1775 N   0  0  0  0  0  0  0  0  0  0  0  0
    5.0501    1.7895   -0.3522 C   0  0  0  0  0  0  0  0  0  0  0  0
    5.3521    2.4981   -1.3693 O   0  0  0  0  0  0  0  0  0  0  0  0
    6.1422    1.4264    0.5578 C   0  0  2  0  0  0  0  0  0  0  0  0
    7.1265    0.5864   -0.2656 C   0  0  0  0  0  0  0  0  0  0  0  0
    7.2105   -0.7096    0.5363 C   0  0  0  0  0  0  0  0  0  0  0  0
    6.9851   -0.1496    1.9467 C   0  0  0  0  0  0  0  0  0  0  0  0
    5.7662    0.6326    1.6854 N   0  0  0  0  0  0  0  0  0  0  0  0
   -1.7040    2.8273    0.3548 F   0  0  0  0  0  0  0  0  0  0  0  0
    0.6659   -2.3044   -2.3477 H   0  0  0  0  0  0  0  0  0  0  0  0
    2.4005   -2.5189   -2.6821 H   0  0  0  0  0  0  0  0  0  0  0  0
    1.7982   -2.6879   -1.0076 H   0  0  0  0  0  0  0  0  0  0  0  0
   -0.5818   -1.3110   -1.0784 H   0  0  0  0  0  0  0  0  0  0  0  0
   -2.4785   -1.7044   -0.6448 H   0  0  0  0  0  0  0  0  0  0  0  0
   -4.0225   -2.4459    1.1356 H   0  0  0  0  0  0  0  0  0  0  0  0
   -2.6553   -1.4406    1.7499 H   0  0  0  0  0  0  0  0  0  0  0  0
   -4.0412    0.5100    1.7496 H   0  0  0  0  0  0  0  0  0  0  0  0
   -4.9238   -0.7763    2.7147 H   0  0  0  0  0  0  0  0  0  0  0  0
   -6.4416   -0.6012   -1.1710 H   0  0  0  0  0  0  0  0  0  0  0  0
   -5.5351    0.8814   -0.8426 H   0  0  0  0  0  0  0  0  0  0  0  0
   -4.5564   -1.9284   -1.5953 H   0  0  0  0  0  0  0  0  0  0  0  0
   -4.0051   -0.3217   -2.0869 H   0  0  0  0  0  0  0  0  0  0  0  0
   -6.9472    0.5690    2.3530 H   0  0  0  0  0  0  0  0  0  0  0  0
   -6.0158    1.6666    1.1886 H   0  0  0  0  0  0  0  0  0  0  0  0
   -7.5186    0.8029    0.6474 H   0  0  0  0  0  0  0  0  0  0  0  0
   -6.0324   -2.5926    0.8247 H   0  0  0  0  0  0  0  0  0  0  0  0
   -6.9535   -1.6725    2.1195 H   0  0  0  0  0  0  0  0  0  0  0  0
   -7.4990   -1.5742    0.3991 H   0  0  0  0  0  0  0  0  0  0  0  0
    0.7772    3.3166   -0.2244 H   0  0  0  0  0  0  0  0  0  0  0  0
    2.7462    2.9627   -1.2820 H   0  0  0  0  0  0  0  0  0  0  0  0
    3.1316    1.4612   -2.1577 H   0  0  0  0  0  0  0  0  0  0  0  0
    3.4339    0.8364    0.6388 H   0  0  0  0  0  0  0  0  0  0  0  0
    6.6629    2.3376    0.9646 H   0  0  0  0  0  0  0  0  0  0  0  0
    6.7356    0.3230   -1.2552 H   0  0  0  0  0  0  0  0  0  0  0  0
    8.0958    1.0726   -0.3668 H   0  0  0  0  0  0  0  0  0  0  0  0
    6.3248   -1.3389    0.3380 H   0  0  0  0  0  0  0  0  0  0  0  0
    8.1613   -1.2320    0.4271 H   0  0  0  0  0  0  0  0  0  0  0  0
    7.8489    0.5145    2.1261 H   0  0  0  0  0  0  0  0  0  0  0  0
    6.8444   -0.9263    2.7002 H   0  0  0  0  0  0  0  0  0  0  0  0
    5.0453   -0.0984    1.4693 H   0  0  0  0  0  0  0  0  0  0  0  0
  1  2  1  0
  2  3  1  0
  3  4  2  0
  4  5  1  0
  5  6  1  0
  6  7  1  0
  7  8  1  0
  8  9  1  0
  9 10  1  0
 10 11  1  0
 11 12  1  0
 10 13  1  0
 10 14  1  0
  5 15  2  0
 15 16  1  0
 16 17  2  0
 17 18  1  0
 18 19  1  0
 19 20  1  0
 20 21  2  0
 20 22  1  0
 22 23  1  0
 23 24  1  0
 24 25  1  0
 25 26  1  0
 15 27  1  0
 17  3  1  0
 26 22  1  0
 12  7  1  0
  1 28  1  0
  1 29  1  0
  1 30  1  0
  4 31  1  0
  7 32  1  0
  8 33  1  0
  8 34  1  0
  9 35  1  0
  9 36  1  0
 11 37  1  0
 11 38  1  0
 12 39  1  0
 12 40  1  0
 13 41  1  0
 13 42  1  0
 13 43  1  0
 14 44  1  0
 14 45  1  0
 14 46  1  0
 16 47  1  0
 18 48  1  0
 18 49  1  0
 19 50  1  0
 22 51  1  1
 23 52  1  0
 23 53  1  0
 24 54  1  0
 24 55  1  0
 25 56  1  0
 25 57  1  0
 26 58  1  0
M  END
>  <Ligand ID>  (1) 
LIG0003567

>  <Ligand>  (1) 
1224048-09-2

>  <SMILES>  (1) 
COc1cc(OC2CCC(CC2)(C)C)c(cc1CNC(=O)[C@@H]1CCCN1)F

>  <CID>  (1) 
46830177.0

>  <ChEMBL ID>  (1) 
nan

>  <InChiKey>  (1) 
FGJOAGVKQWXJAD-KRWDZBQOSA-N

>  <InChi>  (1) 
InChI=1S/C21H31FN2O3/c1-21(2)8-6-15(7-9-21)27-19-12-18(26-3)14(11-16(19)22)13-24-20(25)17-5-4-10-23-17/h11-12,15,17,23H,4-10,13H2,1-3H3,(H,24,25)/t17-/m0/s1

>  <IUPAC Name>  (1) 
(2S)-N-[[4-(4,4-dimethylcyclohexyl)oxy-5-fluoro-2-methoxyphenyl]methyl]pyrrolidine-2-carboxamide

$$$$
