
     RDKit          3D

144146  0  0  0  0  0  0  0  0999 V2000
   -9.8252   -4.7652   -0.0394 C   0  0  0  0  0  0  0  0  0  0  0  0
   -8.4734   -4.1686    0.2784 C   0  0  0  0  0  0  0  0  0  0  0  0
   -7.7956   -3.6071   -0.9666 C   0  0  1  0  0  0  0  0  0  0  0  0
   -6.4955   -3.0476   -0.6011 C   0  0  2  0  0  0  0  0  0  0  0  0
   -6.4664   -1.9654    0.3608 N   0  0  0  0  0  0  0  0  0  0  0  0
   -5.2737   -1.8077    1.1114 C   0  0  0  0  0  0  0  0  0  0  0  0
   -4.3633   -2.6050    0.8894 O   0  0  0  0  0  0  0  0  0  0  0  0
   -5.0913   -0.6992    2.1465 C   0  0  1  0  0  0  0  0  0  0  0  0
   -3.6706   -0.4765    2.2728 N   0  0  0  0  0  0  0  0  0  0  0  0
   -2.7542   -1.0807    3.1650 C   0  0  0  0  0  0  0  0  0  0  0  0
   -3.1986   -1.9058    3.9480 O   0  0  0  0  0  0  0  0  0  0  0  0
   -1.3392   -0.6319    3.0323 C   0  0  0  0  0  0  0  0  0  0  0  0
   -0.3385   -1.4919    3.7013 C   0  0  0  0  0  0  0  0  0  0  0  0
    1.3482   -0.7989    3.5223 S   0  0  0  0  0  0  0  0  0  0  0  0
    1.7016   -0.6648    1.3963 S   0  0  0  0  0  0  0  0  0  0  0  0
    1.1599    0.9741    0.9047 C   0  0  0  0  0  0  0  0  0  0  0  0
    1.1916    1.3505   -0.4947 C   0  0  2  0  0  0  0  0  0  0  0  0
    0.2922    0.5377   -1.3574 N   0  0  0  0  0  0  0  0  0  0  0  0
    0.7243   -0.7531   -1.8218 C   0  0  0  0  0  0  0  0  0  0  0  0
    1.8765   -1.0592   -1.4589 O   0  0  0  0  0  0  0  0  0  0  0  0
   -0.0657   -1.6753   -2.6432 C   0  0  1  0  0  0  0  0  0  0  0  0
   -1.3525   -1.1485   -3.1029 N   0  0  0  0  0  0  0  0  0  0  0  0
   -2.5302   -1.5402   -2.4186 C   0  0  0  0  0  0  0  0  0  0  0  0
   -2.3795   -2.2547   -1.4243 O   0  0  0  0  0  0  0  0  0  0  0  0
   -3.9243   -1.1155   -2.8550 C   0  0  1  0  0  0  0  0  0  0  0  0
   -4.8626   -1.4978   -1.8254 N   0  0  0  0  0  0  0  0  0  0  0  0
   -5.6156   -2.7028   -1.7855 C   0  0  0  0  0  0  0  0  0  0  0  0
   -5.4970   -3.4373   -2.7757 O   0  0  0  0  0  0  0  0  0  0  0  0
   -3.9468    0.3321   -3.2094 C   0  0  0  0  0  0  0  0  0  0  0  0
   -5.3039    0.7877   -3.6457 C   0  0  0  0  0  0  0  0  0  0  0  0
   -5.7931    0.0995   -4.8346 C   0  0  0  0  0  0  0  0  0  0  0  0
   -5.1867   -0.7594   -5.5102 O   0  0  0  0  0  0  0  0  0  0  0  0
   -7.1154    0.4324   -5.2957 N   0  0  0  0  0  0  0  0  0  0  0  0
    0.7721   -2.2307   -3.7583 C   0  0  0  0  0  0  0  0  0  0  0  0
    1.2768   -1.1715   -4.6424 C   0  0  0  0  0  0  0  0  0  0  0  0
    2.3647   -0.6025   -4.4032 O   0  0  0  0  0  0  0  0  0  0  0  0
    0.4755   -0.8265   -5.7784 N   0  0  0  0  0  0  0  0  0  0  0  0
    2.3524    1.7997   -1.2188 C   0  0  0  0  0  0  0  0  0  0  0  0
    2.1372    1.7947   -2.5327 O   0  0  0  0  0  0  0  0  0  0  0  0
    3.6276    2.2322   -0.8794 N   0  0  0  0  0  0  0  0  0  0  0  0
    4.2772    2.2456    0.4095 C   0  0  0  0  0  0  0  0  0  0  0  0
    4.9725    0.9007    0.5190 C   0  0  0  0  0  0  0  0  0  0  0  0
    4.7858    0.1548   -0.5014 O   0  0  0  0  0  0  0  0  0  0  0  0
    5.7465    0.4815    1.5987 N   0  0  0  0  0  0  0  0  0  0  0  0
    6.3391   -0.8563    1.4972 C   0  0  2  0  0  0  0  0  0  0  0  0
    5.9434   -1.6226    2.6732 C   0  0  0  0  0  0  0  0  0  0  0  0
    6.2802   -2.8491    2.7981 O   0  0  0  0  0  0  0  0  0  0  0  0
    5.1712   -1.1074    3.7616 N   0  0  0  0  0  0  0  0  0  0  0  0
    4.8795   -2.0293    4.8369 C   0  0  0  0  0  0  0  0  0  0  0  0
    6.0721   -2.5648    5.4928 C   0  0  0  0  0  0  0  0  0  0  0  0
    5.8870   -3.3889    6.4512 O   0  0  0  0  0  0  0  0  0  0  0  0
    7.4101   -2.2511    5.1583 N   0  0  0  0  0  0  0  0  0  0  0  0
    7.8110   -0.6353    1.3207 C   0  0  0  0  0  0  0  0  0  0  0  0
    8.5151   -1.9488    1.1912 C   0  0  0  0  0  0  0  0  0  0  0  0
   10.0052   -1.6212    1.0081 C   0  0  0  0  0  0  0  0  0  0  0  0
    8.0341   -2.7425   -0.0079 C   0  0  0  0  0  0  0  0  0  0  0  0
    4.4552    2.7678   -1.9986 C   0  0  0  0  0  0  0  0  0  0  0  0
    4.2623    4.1999   -2.2641 C   0  0  0  0  0  0  0  0  0  0  0  0
    4.6142    5.2057   -1.2376 C   0  0  0  0  0  0  0  0  0  0  0  0
    6.0810    5.2271   -0.8713 C   0  0  0  0  0  0  0  0  0  0  0  0
    6.7622    6.1296   -1.8726 C   0  0  0  0  0  0  0  0  0  0  0  0
    5.6426    6.9314   -2.4427 C   0  0  0  0  0  0  0  0  0  0  0  0
    4.4257    6.5189   -1.8251 N   0  0  0  0  0  0  0  0  0  0  0  0
   -5.7482    0.5642    1.7413 C   0  0  0  0  0  0  0  0  0  0  0  0
   -5.6216    1.6977    2.6638 C   0  0  0  0  0  0  0  0  0  0  0  0
   -4.5622    2.6020    2.5683 C   0  0  0  0  0  0  0  0  0  0  0  0
   -4.4465    3.6799    3.4440 C   0  0  0  0  0  0  0  0  0  0  0  0
   -5.4138    3.8325    4.4156 C   0  0  0  0  0  0  0  0  0  0  0  0
   -6.4597    2.9537    4.5223 C   0  0  0  0  0  0  0  0  0  0  0  0
   -6.5527    1.8907    3.6412 C   0  0  0  0  0  0  0  0  0  0  0  0
   -5.3373    4.9029    5.3172 O   0  0  0  0  0  0  0  0  0  0  0  0
   -7.5242   -4.8196   -1.8723 C   0  0  0  0  0  0  0  0  0  0  0  0
   -9.8367   -5.8749    0.1061 H   0  0  0  0  0  0  0  0  0  0  0  0
  -10.5736   -4.3490    0.6556 H   0  0  0  0  0  0  0  0  0  0  0  0
  -10.1537   -4.5228   -1.0711 H   0  0  0  0  0  0  0  0  0  0  0  0
   -8.5865   -3.3345    0.9725 H   0  0  0  0  0  0  0  0  0  0  0  0
   -7.8496   -4.9827    0.7118 H   0  0  0  0  0  0  0  0  0  0  0  0
   -8.4826   -2.9512   -1.5078 H   0  0  0  0  0  0  0  0  0  0  0  0
   -5.8621   -3.8683   -0.1179 H   0  0  0  0  0  0  0  0  0  0  0  0
   -7.2120   -1.3032    0.5588 H   0  0  0  0  0  0  0  0  0  0  0  0
   -5.5474   -1.1279    3.0537 H   0  0  0  0  0  0  0  0  0  0  0  0
   -3.2613    0.2178    1.6231 H   0  0  0  0  0  0  0  0  0  0  0  0
   -1.1441   -0.6993    1.9198 H   0  0  0  0  0  0  0  0  0  0  0  0
   -1.2780    0.4228    3.3027 H   0  0  0  0  0  0  0  0  0  0  0  0
   -0.3126   -2.5265    3.3257 H   0  0  0  0  0  0  0  0  0  0  0  0
   -0.5289   -1.5444    4.7984 H   0  0  0  0  0  0  0  0  0  0  0  0
    0.0494    1.1036    1.2496 H   0  0  0  0  0  0  0  0  0  0  0  0
    1.6448    1.7198    1.5452 H   0  0  0  0  0  0  0  0  0  0  0  0
    0.5311    2.3451   -0.4913 H   0  0  0  0  0  0  0  0  0  0  0  0
   -0.6308    0.8119   -1.6595 H   0  0  0  0  0  0  0  0  0  0  0  0
   -0.2742   -2.5425   -1.9297 H   0  0  0  0  0  0  0  0  0  0  0  0
   -1.4808   -0.5119   -3.8849 H   0  0  0  0  0  0  0  0  0  0  0  0
   -4.0569   -1.7220   -3.7847 H   0  0  0  0  0  0  0  0  0  0  0  0
   -5.0239   -0.8447   -1.0591 H   0  0  0  0  0  0  0  0  0  0  0  0
   -3.5838    0.9855   -2.3760 H   0  0  0  0  0  0  0  0  0  0  0  0
   -3.2424    0.4814   -4.0653 H   0  0  0  0  0  0  0  0  0  0  0  0
   -5.3252    1.8849   -3.8280 H   0  0  0  0  0  0  0  0  0  0  0  0
   -6.0100    0.6050   -2.8007 H   0  0  0  0  0  0  0  0  0  0  0  0
   -7.2231    1.4262   -5.6126 H   0  0  0  0  0  0  0  0  0  0  0  0
   -7.8974   -0.2427   -5.3156 H   0  0  0  0  0  0  0  0  0  0  0  0
    1.6245   -2.7883   -3.2737 H   0  0  0  0  0  0  0  0  0  0  0  0
    0.1425   -2.9492   -4.3353 H   0  0  0  0  0  0  0  0  0  0  0  0
    0.3969    0.1416   -6.1546 H   0  0  0  0  0  0  0  0  0  0  0  0
   -0.0639   -1.5976   -6.2568 H   0  0  0  0  0  0  0  0  0  0  0  0
    5.1078    2.9932    0.4432 H   0  0  0  0  0  0  0  0  0  0  0  0
    3.7030    2.3732    1.2921 H   0  0  0  0  0  0  0  0  0  0  0  0
    5.8760    1.1031    2.4054 H   0  0  0  0  0  0  0  0  0  0  0  0
    5.9834   -1.3396    0.5602 H   0  0  0  0  0  0  0  0  0  0  0  0
    4.8576   -0.1130    3.7395 H   0  0  0  0  0  0  0  0  0  0  0  0
    4.2885   -2.8915    4.4187 H   0  0  0  0  0  0  0  0  0  0  0  0
    4.2665   -1.4733    5.5824 H   0  0  0  0  0  0  0  0  0  0  0  0
    7.7408   -1.3556    4.7657 H   0  0  0  0  0  0  0  0  0  0  0  0
    8.1533   -2.9906    5.3175 H   0  0  0  0  0  0  0  0  0  0  0  0
    7.9274   -0.0894    0.3538 H   0  0  0  0  0  0  0  0  0  0  0  0
    8.2466   -0.0736    2.1640 H   0  0  0  0  0  0  0  0  0  0  0  0
    8.4372   -2.6003    2.0759 H   0  0  0  0  0  0  0  0  0  0  0  0
   10.3872   -1.4821    2.0494 H   0  0  0  0  0  0  0  0  0  0  0  0
   10.0839   -0.6582    0.4880 H   0  0  0  0  0  0  0  0  0  0  0  0
   10.4953   -2.4533    0.4683 H   0  0  0  0  0  0  0  0  0  0  0  0
    7.4384   -3.6012    0.3080 H   0  0  0  0  0  0  0  0  0  0  0  0
    7.4204   -2.0871   -0.6761 H   0  0  0  0  0  0  0  0  0  0  0  0
    8.9309   -3.1063   -0.5938 H   0  0  0  0  0  0  0  0  0  0  0  0
    5.5208    2.5886   -1.7599 H   0  0  0  0  0  0  0  0  0  0  0  0
    4.1640    2.1930   -2.8815 H   0  0  0  0  0  0  0  0  0  0  0  0
    4.9378    4.4227   -3.1540 H   0  0  0  0  0  0  0  0  0  0  0  0
    3.2449    4.4282   -2.7262 H   0  0  0  0  0  0  0  0  0  0  0  0
    3.9772    5.1323   -0.3151 H   0  0  0  0  0  0  0  0  0  0  0  0
    6.5026    4.2113   -1.0471 H   0  0  0  0  0  0  0  0  0  0  0  0
    6.2333    5.5672    0.1721 H   0  0  0  0  0  0  0  0  0  0  0  0
    7.5706    6.7273   -1.4225 H   0  0  0  0  0  0  0  0  0  0  0  0
    7.2282    5.5484   -2.7063 H   0  0  0  0  0  0  0  0  0  0  0  0
    5.8378    8.0313   -2.2646 H   0  0  0  0  0  0  0  0  0  0  0  0
    5.5804    6.8753   -3.5687 H   0  0  0  0  0  0  0  0  0  0  0  0
    4.1541    7.2140   -1.0860 H   0  0  0  0  0  0  0  0  0  0  0  0
   -6.8456    0.3965    1.5915 H   0  0  0  0  0  0  0  0  0  0  0  0
   -5.3791    0.9270    0.7381 H   0  0  0  0  0  0  0  0  0  0  0  0
   -3.7915    2.5198    1.8208 H   0  0  0  0  0  0  0  0  0  0  0  0
   -3.6162    4.3814    3.3663 H   0  0  0  0  0  0  0  0  0  0  0  0
   -7.1957    3.1120    5.2982 H   0  0  0  0  0  0  0  0  0  0  0  0
   -7.3974    1.1950    3.7445 H   0  0  0  0  0  0  0  0  0  0  0  0
   -6.0941    5.5968    5.3449 H   0  0  0  0  0  0  0  0  0  0  0  0
   -6.5038   -5.1917   -1.6483 H   0  0  0  0  0  0  0  0  0  0  0  0
   -8.2094   -5.6382   -1.5994 H   0  0  0  0  0  0  0  0  0  0  0  0
   -7.5596   -4.5538   -2.9439 H   0  0  0  0  0  0  0  0  0  0  0  0
  1  2  1  0
  2  3  1  0
  3  4  1  0
  4  5  1  0
  5  6  1  0
  6  7  2  0
  6  8  1  0
  8  9  1  0
  9 10  1  0
 10 11  2  0
 10 12  1  0
 12 13  1  0
 13 14  1  0
 14 15  1  0
 15 16  1  0
 16 17  1  0
 17 18  1  0
 18 19  1  0
 19 20  2  0
 19 21  1  0
 21 22  1  0
 22 23  1  0
 23 24  2  0
 23 25  1  0
 25 26  1  0
 26 27  1  0
 27 28  2  0
 25 29  1  0
 29 30  1  0
 30 31  1  0
 31 32  2  0
 31 33  1  0
 21 34  1  0
 34 35  1  0
 35 36  2  0
 35 37  1  0
 17 38  1  0
 38 39  2  0
 38 40  1  0
 40 41  1  0
 41 42  1  0
 42 43  2  0
 42 44  1  0
 44 45  1  0
 45 46  1  0
 46 47  2  0
 46 48  1  0
 48 49  1  0
 49 50  1  0
 50 51  2  0
 50 52  1  0
 45 53  1  0
 53 54  1  0
 54 55  1  0
 54 56  1  0
 40 57  1  0
 57 58  1  0
 58 59  1  0
 59 60  1  0
 60 61  1  0
 61 62  1  0
 62 63  1  0
  8 64  1  0
 64 65  1  0
 65 66  2  0
 66 67  1  0
 67 68  2  0
 68 69  1  0
 69 70  2  0
 68 71  1  0
  3 72  1  0
 27  4  1  0
 63 59  1  0
 70 65  1  0
  1 73  1  0
  1 74  1  0
  1 75  1  0
  2 76  1  0
  2 77  1  0
  3 78  1  6
  4 79  1  1
  5 80  1  0
  8 81  1  1
  9 82  1  0
 12 83  1  0
 12 84  1  0
 13 85  1  0
 13 86  1  0
 16 87  1  0
 16 88  1  0
 17 89  1  1
 18 90  1  0
 21 91  1  1
 22 92  1  0
 25 93  1  6
 26 94  1  0
 29 95  1  0
 29 96  1  0
 30 97  1  0
 30 98  1  0
 33 99  1  0
 33100  1  0
 34101  1  0
 34102  1  0
 37103  1  0
 37104  1  0
 41105  1  0
 41106  1  0
 44107  1  0
 45108  1  6
 48109  1  0
 49110  1  0
 49111  1  0
 52112  1  0
 52113  1  0
 53114  1  0
 53115  1  0
 54116  1  0
 55117  1  0
 55118  1  0
 55119  1  0
 56120  1  0
 56121  1  0
 56122  1  0
 57123  1  0
 57124  1  0
 58125  1  0
 58126  1  0
 59127  1  0
 60128  1  0
 60129  1  0
 61130  1  0
 61131  1  0
 62132  1  0
 62133  1  0
 63134  1  0
 64135  1  0
 64136  1  0
 66137  1  0
 67138  1  0
 69139  1  0
 70140  1  0
 71141  1  0
 72142  1  0
 72143  1  0
 72144  1  0
M  END
>  <Ligand ID>  (1) 
LIG0001648

>  <Ligand>  (1) 
CHEMBL3354573

>  <SMILES>  (1) 
CC[C@@H]([C@@H]1NC(=O)[C@@H](NC(=O)CCSSC[C@H](NC(=O)[C@@H](NC(=O)[C@@H](NC1=O)CCC(=O)N)CC(=O)N)C(=O)N(CC(=O)N[C@H](C(=O)NCC(=O)N)CC(C)C)CCC1CCCN1)Cc1ccc(cc1)O)C

>  <CID>  (1) 
118720262.0

>  <ChEMBL ID>  (1) 
nan

>  <InChiKey>  (1) 
JWBPGYLWPFBXLZ-CBMOJYEVSA-N

>  <InChi>  (1) 
InChI=1S/C46H72N12O12S2/c1-5-26(4)40-45(69)54-30(12-13-35(47)60)42(66)55-33(21-36(48)61)43(67)56-34(24-72-71-18-15-38(63)52-32(44(68)57-40)20-27-8-10-29(59)11-9-27)46(70)58(17-14-28-7-6-16-50-28)23-39(64)53-31(19-25(2)3)41(65)51-22-37(49)62/h8-11,25-26,28,30-34,40,50,59H,5-7,12-24H2,1-4H3,(H2,47,60)(H2,48,61)(H2,49,62)(H,51,65)(H,52,63)(H,53,64)(H,54,69)(H,55,66)(H,56,67)(H,57,68)/t26-,28?,30-,31-,32-,33-,34-,40-/m0/s1

>  <IUPAC Name>  (1) 
(4R,7S,10S,13S,16S)-7-(2-amino-2-oxoethyl)-N-[2-[[(2S)-1-[(2-amino-2-oxoethyl)amino]-4-methyl-1-oxopentan-2-yl]amino]-2-oxoethyl]-10-(3-amino-3-oxopropyl)-13-[(2S)-butan-2-yl]-16-[(4-hydroxyphenyl)methyl]-6,9,12,15,18-pentaoxo-N-(2-pyrrolidin-2-ylethyl)-1,2-dithia-5,8,11,14,17-pentazacycloicosane-4-carboxamide

$$$$
