
     RDKit          3D

 30 32  0  0  0  0  0  0  0  0999 V2000
    3.3465    2.1882    1.8438 F   0  0  0  0  0  0  0  0  0  0  0  0
    2.9926    1.0615    1.1631 C   0  0  0  0  0  0  0  0  0  0  0  0
    3.9230    0.0604    0.9918 C   0  0  0  0  0  0  0  0  0  0  0  0
    3.5235   -1.0559    0.3005 C   0  0  0  0  0  0  0  0  0  0  0  0
    2.2374   -1.1806   -0.2093 C   0  0  0  0  0  0  0  0  0  0  0  0
    1.2832   -0.1735   -0.0439 C   0  0  0  0  0  0  0  0  0  0  0  0
    1.6974    0.9312    0.6477 C   0  0  0  0  0  0  0  0  0  0  0  0
    0.0144   -0.4138   -0.5795 N   0  0  0  0  0  0  0  0  0  0  0  0
   -0.5474   -1.8019   -0.5675 C   0  0  0  0  0  0  0  0  0  0  0  0
   -1.9049   -1.4722    0.0412 C   0  0  0  0  0  0  0  0  0  0  0  0
   -2.3239   -0.2514   -0.7019 C   0  0  2  0  0  0  0  0  0  0  0  0
   -1.0093    0.3220   -1.2272 C   0  0  1  0  0  0  0  0  0  0  0  0
   -1.1697    1.7651   -0.9257 C   0  0  0  0  0  0  0  0  0  0  0  0
   -1.8899    1.8069    0.3376 N   0  0  0  0  0  0  0  0  0  0  0  0
   -2.9103    0.8345    0.1307 C   0  0  0  0  0  0  0  0  0  0  0  0
    4.9039    0.1708    1.3880 H   0  0  0  0  0  0  0  0  0  0  0  0
    4.2520   -1.8387    0.1672 H   0  0  0  0  0  0  0  0  0  0  0  0
    2.0183   -2.0985   -0.7396 H   0  0  0  0  0  0  0  0  0  0  0  0
    1.0413    1.7490    0.8425 H   0  0  0  0  0  0  0  0  0  0  0  0
    0.0552   -2.4801    0.0292 H   0  0  0  0  0  0  0  0  0  0  0  0
   -0.6921   -2.0778   -1.6289 H   0  0  0  0  0  0  0  0  0  0  0  0
   -2.5716   -2.3422   -0.0986 H   0  0  0  0  0  0  0  0  0  0  0  0
   -1.7077   -1.2659    1.1194 H   0  0  0  0  0  0  0  0  0  0  0  0
   -3.0011   -0.5748   -1.5257 H   0  0  0  0  0  0  0  0  0  0  0  0
   -1.0358    0.1220   -2.3404 H   0  0  0  0  0  0  0  0  0  0  0  0
   -1.8833    2.2015   -1.6797 H   0  0  0  0  0  0  0  0  0  0  0  0
   -0.2635    2.3459   -0.9040 H   0  0  0  0  0  0  0  0  0  0  0  0
   -1.3137    1.6723    1.1713 H   0  0  0  0  0  0  0  0  0  0  0  0
   -3.6988    1.3397   -0.4985 H   0  0  0  0  0  0  0  0  0  0  0  0
   -3.3655    0.4567    1.0746 H   0  0  0  0  0  0  0  0  0  0  0  0
  1  2  1  0
  2  3  2  0
  3  4  1  0
  4  5  2  0
  5  6  1  0
  6  7  2  0
  6  8  1  0
  8  9  1  0
  9 10  1  0
 10 11  1  0
 11 12  1  0
 12 13  1  0
 13 14  1  0
 14 15  1  0
  7  2  1  0
 12  8  1  0
 15 11  1  0
  3 16  1  0
  4 17  1  0
  5 18  1  0
  7 19  1  0
  9 20  1  0
  9 21  1  0
 10 22  1  0
 10 23  1  0
 11 24  1  6
 12 25  1  6
 13 26  1  0
 13 27  1  0
 14 28  1  0
 15 29  1  0
 15 30  1  0
M  END
>  <Ligand ID>  (1) 
LIG0003122

>  <Ligand>  (1) 
CHEMBL209106

>  <SMILES>  (1) 
Fc1cccc(c1)N1CC[C@@H]2[C@H]1CNC2

>  <CID>  (1) 
44412404.0

>  <ChEMBL ID>  (1) 
nan

>  <InChiKey>  (1) 
JSBFVPCJAHEFGS-JOYOIKCWSA-N

>  <InChi>  (1) 
InChI=1S/C12H15FN2/c13-10-2-1-3-11(6-10)15-5-4-9-7-14-8-12(9)15/h1-3,6,9,12,14H,4-5,7-8H2/t9-,12+/m0/s1

>  <IUPAC Name>  (1) 
(3aS,6aS)-1-(3-fluorophenyl)-3,3a,4,5,6,6a-hexahydro-2H-pyrrolo[2,3-c]pyrrole

$$$$
