
     RDKit          3D

 21 21  0  0  0  0  0  0  0  0999 V2000
    3.7773   -0.9005    0.0729 C   0  0  0  0  0  0  0  0  0  0  0  0
    2.8741    0.3299    0.0744 C   0  0  0  0  0  0  0  0  0  0  0  0
    1.5333   -0.1113    0.0889 O   0  0  0  0  0  0  0  0  0  0  0  0
    0.4619    0.7704    0.0938 C   0  0  0  0  0  0  0  0  0  0  0  0
    0.7029    2.0049    0.0850 O   0  0  0  0  0  0  0  0  0  0  0  0
   -0.9295    0.3443    0.1086 C   0  0  0  0  0  0  0  0  0  0  0  0
   -1.8928    1.3315    0.1121 C   0  0  0  0  0  0  0  0  0  0  0  0
   -3.2577    1.0302    0.1260 C   0  0  0  0  0  0  0  0  0  0  0  0
   -3.6196   -0.3143    0.1365 C   0  0  0  0  0  0  0  0  0  0  0  0
   -2.6514   -1.3059    0.1330 C   0  0  0  0  0  0  0  0  0  0  0  0
   -1.2959   -0.9836    0.1190 C   0  0  0  0  0  0  0  0  0  0  0  0
    3.4818   -1.5693    0.8849 H   0  0  0  0  0  0  0  0  0  0  0  0
    4.8356   -0.6089    0.1274 H   0  0  0  0  0  0  0  0  0  0  0  0
    3.6071   -1.4156   -0.8972 H   0  0  0  0  0  0  0  0  0  0  0  0
    3.0997    0.9432    0.9926 H   0  0  0  0  0  0  0  0  0  0  0  0
    3.1353    0.9046   -0.8305 H   0  0  0  0  0  0  0  0  0  0  0  0
   -1.6598    2.3887    0.1043 H   0  0  0  0  0  0  0  0  0  0  0  0
   -3.9942    1.8291    0.1284 H   0  0  0  0  0  0  0  0  0  0  0  0
   -4.6719   -0.5643    0.1473 H   0  0  0  0  0  0  0  0  0  0  0  0
   -2.9938   -2.3438    0.1417 H   0  0  0  0  0  0  0  0  0  0  0  0
   -0.5422   -1.7590    0.1164 H   0  0  0  0  0  0  0  0  0  0  0  0
  1  2  1  0
  2  3  1  0
  3  4  1  0
  4  5  2  0
  4  6  1  0
  6  7  2  0
  7  8  1  0
  8  9  2  0
  9 10  1  0
 10 11  2  0
 11  6  1  0
  1 12  1  0
  1 13  1  0
  1 14  1  0
  2 15  1  0
  2 16  1  0
  7 17  1  0
  8 18  1  0
  9 19  1  0
 10 20  1  0
 11 21  1  0
M  END
>  <Ligand ID>  (1) 
LIG0000296

>  <Ligand>  (1) 
ethyl benzoate

>  <SMILES>  (1) 
CCOC(=O)c1ccccc1

>  <CID>  (1) 
7165.0

>  <ChEMBL ID>  (1) 
nan

>  <InChiKey>  (1) 
MTZQAGJQAFMTAQ-UHFFFAOYSA-N

>  <InChi>  (1) 
InChI=1S/C9H10O2/c1-2-11-9(10)8-6-4-3-5-7-8/h3-7H,2H2,1H3

>  <IUPAC Name>  (1) 
ethyl benzoate

$$$$
