
     RDKit          3D

 48 49  0  0  0  0  0  0  0  0999 V2000
    0.0310    1.7860   -0.2176 O   0  0  0  0  0  0  0  0  0  0  0  0
    0.2244    0.6065   -0.6533 C   0  0  0  0  0  0  0  0  0  0  0  0
    1.5640    0.1752   -1.1485 C   0  0  1  0  0  0  0  0  0  0  0  0
    2.4506    1.3100   -1.0130 N   0  0  0  0  0  0  0  0  0  0  0  0
    3.1193    1.0376    0.2483 C   0  0  0  0  0  0  0  0  0  0  0  0
    3.5274   -0.4086    0.0102 C   0  0  2  0  0  0  0  0  0  0  0  0
    2.1488   -0.9663   -0.3654 C   0  0  0  0  0  0  0  0  0  0  0  0
    4.0603   -1.0513    1.2640 C   0  0  0  0  0  0  0  0  0  0  0  0
    5.2126   -0.2846    1.6767 N   0  0  0  0  0  0  0  0  0  0  0  0
    6.3677   -0.3591    1.1163 C   0  0  0  0  0  0  0  0  0  0  0  0
    7.4784    0.4252    1.5663 N   0  0  0  0  0  0  0  0  0  0  0  0
    6.6010   -1.2371    0.0060 N   0  0  0  0  0  0  0  0  0  0  0  0
   -0.8476   -0.3297   -0.6746 N   0  0  0  0  0  0  0  0  0  0  0  0
   -2.1761    0.0475   -0.2000 C   0  0  2  0  0  0  0  0  0  0  0  0
   -2.4712   -0.8487    0.9270 C   0  0  0  0  0  0  0  0  0  0  0  0
   -1.6252   -1.7599    1.2001 O   0  0  0  0  0  0  0  0  0  0  0  0
   -3.6210   -0.7912    1.7492 N   0  0  0  0  0  0  0  0  0  0  0  0
   -3.2067   -0.0890   -1.2607 C   0  0  0  0  0  0  0  0  0  0  0  0
   -4.5360    0.2912   -0.7605 C   0  0  0  0  0  0  0  0  0  0  0  0
   -4.9122    1.6341   -0.7629 C   0  0  0  0  0  0  0  0  0  0  0  0
   -6.1543    2.0209   -0.3247 C   0  0  0  0  0  0  0  0  0  0  0  0
   -7.0945    1.1268    0.1380 C   0  0  0  0  0  0  0  0  0  0  0  0
   -6.7315   -0.2164    0.1453 C   0  0  0  0  0  0  0  0  0  0  0  0
   -5.4829   -0.5962   -0.2964 C   0  0  0  0  0  0  0  0  0  0  0  0
    1.5554   -0.1112   -2.2082 H   0  0  0  0  0  0  0  0  0  0  0  0
    1.9248    2.2150   -0.9905 H   0  0  0  0  0  0  0  0  0  0  0  0
    3.9781    1.6955    0.4358 H   0  0  0  0  0  0  0  0  0  0  0  0
    2.3470    1.0307    1.0277 H   0  0  0  0  0  0  0  0  0  0  0  0
    4.2055   -0.5366   -0.8439 H   0  0  0  0  0  0  0  0  0  0  0  0
    2.2351   -1.9123   -0.9242 H   0  0  0  0  0  0  0  0  0  0  0  0
    1.5806   -1.1567    0.5596 H   0  0  0  0  0  0  0  0  0  0  0  0
    3.2903   -1.0026    2.0456 H   0  0  0  0  0  0  0  0  0  0  0  0
    4.3984   -2.0585    0.9921 H   0  0  0  0  0  0  0  0  0  0  0  0
    8.4334    0.0170    1.7111 H   0  0  0  0  0  0  0  0  0  0  0  0
    7.3751    1.4635    1.7732 H   0  0  0  0  0  0  0  0  0  0  0  0
    6.1753   -2.1953   -0.0035 H   0  0  0  0  0  0  0  0  0  0  0  0
    7.2020   -0.9172   -0.8016 H   0  0  0  0  0  0  0  0  0  0  0  0
   -0.7522   -1.3108   -1.0196 H   0  0  0  0  0  0  0  0  0  0  0  0
   -2.1829    1.1095    0.1477 H   0  0  0  0  0  0  0  0  0  0  0  0
   -4.0976   -1.6834    2.0109 H   0  0  0  0  0  0  0  0  0  0  0  0
   -3.9861    0.1456    2.0895 H   0  0  0  0  0  0  0  0  0  0  0  0
   -3.0142    0.5401   -2.1542 H   0  0  0  0  0  0  0  0  0  0  0  0
   -3.2001   -1.1646   -1.6154 H   0  0  0  0  0  0  0  0  0  0  0  0
   -4.2215    2.4127   -1.1163 H   0  0  0  0  0  0  0  0  0  0  0  0
   -6.4137    3.0763   -0.3407 H   0  0  0  0  0  0  0  0  0  0  0  0
   -8.0626    1.4439    0.4780 H   0  0  0  0  0  0  0  0  0  0  0  0
   -7.4415   -0.9573    0.5018 H   0  0  0  0  0  0  0  0  0  0  0  0
   -5.2548   -1.6664   -0.2786 H   0  0  0  0  0  0  0  0  0  0  0  0
  1  2  2  0
  2  3  1  0
  3  4  1  0
  4  5  1  0
  5  6  1  0
  6  7  1  0
  6  8  1  0
  8  9  1  0
  9 10  2  3
 10 11  1  0
 10 12  1  0
  2 13  1  0
 13 14  1  0
 14 15  1  0
 15 16  2  0
 15 17  1  0
 14 18  1  0
 18 19  1  0
 19 20  2  0
 20 21  1  0
 21 22  2  0
 22 23  1  0
 23 24  2  0
  7  3  1  0
 24 19  1  0
  3 25  1  6
  4 26  1  0
  5 27  1  0
  5 28  1  0
  6 29  1  6
  7 30  1  0
  7 31  1  0
  8 32  1  0
  8 33  1  0
 11 34  1  0
 11 35  1  0
 12 36  1  0
 12 37  1  0
 13 38  1  0
 14 39  1  1
 17 40  1  0
 17 41  1  0
 18 42  1  0
 18 43  1  0
 20 44  1  0
 21 45  1  0
 22 46  1  0
 23 47  1  0
 24 48  1  0
M  END
>  <Ligand ID>  (1) 
LIG0002404

>  <Ligand>  (1) 
CHEMBL3343991

>  <SMILES>  (1) 
O=C([C@H]1NC[C@H](C1)CN=C(N)N)N[C@H](C(=O)N)Cc1ccccc1

>  <CID>  (1) 
118717465.0

>  <ChEMBL ID>  (1) 
nan

>  <InChiKey>  (1) 
BFLKQEFSKSGPPF-AVGNSLFASA-N

>  <InChi>  (1) 
InChI=1S/C16H24N6O2/c17-14(23)12(6-10-4-2-1-3-5-10)22-15(24)13-7-11(8-20-13)9-21-16(18)19/h1-5,11-13,20H,6-9H2,(H2,17,23)(H,22,24)(H4,18,19,21)/t11-,12-,13-/m0/s1

>  <IUPAC Name>  (1) 
(2S,4S)-N-[(2S)-1-amino-1-oxo-3-phenylpropan-2-yl]-4-[(diaminomethylideneamino)methyl]pyrrolidine-2-carboxamide

$$$$
