
     RDKit          3D

 45 46  0  0  0  0  0  0  0  0999 V2000
    5.2377    0.5686    0.1946 C   0  0  0  0  0  0  0  0  0  0  0  0
    4.0435    0.8248   -0.3544 C   0  0  0  0  0  0  0  0  0  0  0  0
    3.2974   -0.2123   -1.1373 C   0  0  0  0  0  0  0  0  0  0  0  0
    2.0119   -0.5008   -0.5416 N   0  0  0  0  0  0  0  0  0  0  0  0
    2.1071   -1.1680    0.7203 C   0  0  0  0  0  0  0  0  0  0  0  0
    0.9453   -1.0041    1.6291 C   0  0  0  0  0  0  0  0  0  0  0  0
   -0.3467   -1.3634    0.9730 C   0  0  0  0  0  0  0  0  0  0  0  0
   -0.8884   -0.8222   -0.1846 C   0  0  0  0  0  0  0  0  0  0  0  0
   -0.2776    0.2480   -1.0055 C   0  0  0  0  0  0  0  0  0  0  0  0
    1.1084    0.6068   -0.5665 C   0  0  0  0  0  0  0  0  0  0  0  0
   -1.1599    1.4335   -0.8541 C   0  0  0  0  0  0  0  0  0  0  0  0
   -1.9604    1.8728   -1.9024 C   0  0  0  0  0  0  0  0  0  0  0  0
   -2.7845    2.9890   -1.7205 C   0  0  0  0  0  0  0  0  0  0  0  0
   -2.8039    3.6590   -0.4945 C   0  0  0  0  0  0  0  0  0  0  0  0
   -1.9883    3.1964    0.5439 C   0  0  0  0  0  0  0  0  0  0  0  0
   -1.1682    2.0858    0.3637 C   0  0  0  0  0  0  0  0  0  0  0  0
   -2.0875   -1.2793   -0.6356 C   0  0  0  0  0  0  0  0  0  0  0  0
   -2.7781   -2.2781    0.0446 C   0  0  0  0  0  0  0  0  0  0  0  0
   -2.2591   -2.8383    1.2073 C   0  0  0  0  0  0  0  0  0  0  0  0
   -1.0476   -2.3531    1.6325 C   0  0  0  0  0  0  0  0  0  0  0  0
   -0.3432   -3.0123    3.0853 Cl  0  0  0  0  0  0  0  0  0  0  0  0
   -2.9062   -3.8236    1.9071 O   0  0  0  0  0  0  0  0  0  0  0  0
   -3.9880   -2.7239   -0.4274 O   0  0  0  0  0  0  0  0  0  0  0  0
    0.7640    0.0000    0.0000 Br  0  0  0  0  0  0  0  0  0  0  0  0
    5.7980    1.2897    0.7610 H   0  0  0  0  0  0  0  0  0  0  0  0
    5.6877   -0.4326    0.0703 H   0  0  0  0  0  0  0  0  0  0  0  0
    3.6363    1.8204   -0.2064 H   0  0  0  0  0  0  0  0  0  0  0  0
    3.8843   -1.1339   -1.1909 H   0  0  0  0  0  0  0  0  0  0  0  0
    3.1395    0.1791   -2.1439 H   0  0  0  0  0  0  0  0  0  0  0  0
    2.3227   -2.2595    0.5568 H   0  0  0  0  0  0  0  0  0  0  0  0
    3.0148   -0.7894    1.2391 H   0  0  0  0  0  0  0  0  0  0  0  0
    0.9181    0.0119    2.0862 H   0  0  0  0  0  0  0  0  0  0  0  0
    1.0846   -1.7309    2.4638 H   0  0  0  0  0  0  0  0  0  0  0  0
   -0.2455   -0.1299   -2.0467 H   0  0  0  0  0  0  0  0  0  0  0  0
    1.1412    1.2229    0.3472 H   0  0  0  0  0  0  0  0  0  0  0  0
    1.5031    1.3017   -1.3685 H   0  0  0  0  0  0  0  0  0  0  0  0
   -1.9699    1.3743   -2.8696 H   0  0  0  0  0  0  0  0  0  0  0  0
   -3.4235    3.3475   -2.5435 H   0  0  0  0  0  0  0  0  0  0  0  0
   -3.4475    4.5356   -0.3475 H   0  0  0  0  0  0  0  0  0  0  0  0
   -1.9754    3.6930    1.5172 H   0  0  0  0  0  0  0  0  0  0  0  0
   -0.5724    1.7849    1.2134 H   0  0  0  0  0  0  0  0  0  0  0  0
   -2.4964   -0.8449   -1.5427 H   0  0  0  0  0  0  0  0  0  0  0  0
   -3.8398   -3.6613    2.2832 H   0  0  0  0  0  0  0  0  0  0  0  0
   -4.1234   -3.6839   -0.7554 H   0  0  0  0  0  0  0  0  0  0  0  0
   -0.7640    0.0000    0.0000 H   0  0  0  0  0  0  0  0  0  0  0  0
  1  2  2  0
  2  3  1  0
  3  4  1  0
  4  5  1  0
  5  6  1  0
  6  7  1  0
  7  8  2  0
  8  9  1  0
  9 10  1  0
  9 11  1  0
 11 12  2  0
 12 13  1  0
 13 14  2  0
 14 15  1  0
 15 16  2  0
  8 17  1  0
 17 18  2  0
 18 19  1  0
 19 20  2  0
 20 21  1  0
 19 22  1  0
 18 23  1  0
 10  4  1  0
 16 11  1  0
 20  7  1  0
  1 25  1  0
  1 26  1  0
  2 27  1  0
  3 28  1  0
  3 29  1  0
  5 30  1  0
  5 31  1  0
  6 32  1  0
  6 33  1  0
  9 34  1  0
 10 35  1  0
 10 36  1  0
 12 37  1  0
 13 38  1  0
 14 39  1  0
 15 40  1  0
 16 41  1  0
 17 42  1  0
 22 43  1  0
 23 44  1  0
 24 45  1  0
M  END
>  <Ligand ID>  (1) 
LIG0005633

>  <Ligand>  (1) 
Chloro-APB hydrobromide

>  <SMILES>  (1) 
C=CCN1CCc2c(C(C1)c1ccccc1)cc(c(c2Cl)O)O.Br

>  <CID>  (1) 
9909521.0

>  <ChEMBL ID>  (1) 
nan

>  <InChiKey>  (1) 
WLXGFAVTAAQOFH-UHFFFAOYSA-N

>  <InChi>  (1) 
InChI=1S/C19H20ClNO2.BrH/c1-2-9-21-10-8-14-15(11-17(22)19(23)18(14)20)16(12-21)13-6-4-3-5-7-13;/h2-7,11,16,22-23H,1,8-10,12H2;1H

>  <IUPAC Name>  (1) 
9-chloro-5-phenyl-3-prop-2-enyl-1,2,4,5-tetrahydro-3-benzazepine-7,8-diol;hydrobromide

$$$$
