
     RDKit          3D

 59 63  0  0  0  0  0  0  0  0999 V2000
   -9.1336   -1.1107    2.2426 Cl  0  0  0  0  0  0  0  0  0  0  0  0
   -7.6646   -0.6582    1.4198 C   0  0  0  0  0  0  0  0  0  0  0  0
   -6.4166   -1.1284    1.8098 C   0  0  0  0  0  0  0  0  0  0  0  0
   -5.2652   -0.7458    1.1299 C   0  0  0  0  0  0  0  0  0  0  0  0
   -5.3464    0.1128    0.0501 C   0  0  0  0  0  0  0  0  0  0  0  0
   -6.6038    0.5582   -0.3067 C   0  0  0  0  0  0  0  0  0  0  0  0
   -7.7560    0.1925    0.3517 C   0  0  0  0  0  0  0  0  0  0  0  0
   -6.4449    1.3704   -1.3677 N   0  0  0  0  0  0  0  0  0  0  0  0
   -5.1526    1.4313   -1.6618 C   0  0  0  0  0  0  0  0  0  0  0  0
   -4.5956    2.0815   -2.5828 O   0  0  0  0  0  0  0  0  0  0  0  0
   -4.4249    0.6568   -0.7971 N   0  0  0  0  0  0  0  0  0  0  0  0
   -3.0075    0.4426   -0.7623 C   0  0  0  0  0  0  0  0  0  0  0  0
   -2.5357   -0.9643   -0.7569 C   0  0  0  0  0  0  0  0  0  0  0  0
   -1.3858   -1.1230    0.2483 C   0  0  0  0  0  0  0  0  0  0  0  0
   -0.4074   -0.1225    0.0469 N   0  0  0  0  0  0  0  0  0  0  0  0
   -0.8353    1.2151   -0.0778 C   0  0  0  0  0  0  0  0  0  0  0  0
   -2.3141    1.2610    0.3355 C   0  0  0  0  0  0  0  0  0  0  0  0
    0.8352   -0.4992   -0.5069 C   0  0  0  0  0  0  0  0  0  0  0  0
    1.5113   -1.4905    0.4349 C   0  0  0  0  0  0  0  0  0  0  0  0
    2.3870   -0.7413    1.4279 C   0  0  0  0  0  0  0  0  0  0  0  0
    3.4868   -0.1107    0.7710 N   0  0  0  0  0  0  0  0  0  0  0  0
    3.1876    0.1286   -0.6265 C   0  0  0  0  0  0  0  0  0  0  0  0
    1.7702    0.6531   -0.7599 C   0  0  0  0  0  0  0  0  0  0  0  0
    4.7026   -0.8783    0.8956 C   0  0  0  0  0  0  0  0  0  0  0  0
    5.8223   -0.1795    0.1959 C   0  0  0  0  0  0  0  0  0  0  0  0
    6.2193   -0.6849   -1.0306 C   0  0  0  0  0  0  0  0  0  0  0  0
    7.2492   -0.1143   -1.7679 C   0  0  0  0  0  0  0  0  0  0  0  0
    7.8626    0.9903   -1.2134 C   0  0  0  0  0  0  0  0  0  0  0  0
    7.4728    1.5016    0.0110 C   0  0  0  0  0  0  0  0  0  0  0  0
    6.4384    0.9173    0.7369 C   0  0  0  0  0  0  0  0  0  0  0  0
    5.9350    1.5554    2.2892 Cl  0  0  0  0  0  0  0  0  0  0  0  0
   -6.4089   -1.7944    2.6561 H   0  0  0  0  0  0  0  0  0  0  0  0
   -4.3154   -1.1156    1.4416 H   0  0  0  0  0  0  0  0  0  0  0  0
   -8.7149    0.5928    0.0022 H   0  0  0  0  0  0  0  0  0  0  0  0
   -7.1934    1.8912   -1.9055 H   0  0  0  0  0  0  0  0  0  0  0  0
   -2.5999    0.9213   -1.7045 H   0  0  0  0  0  0  0  0  0  0  0  0
   -2.0260   -1.2571   -1.7261 H   0  0  0  0  0  0  0  0  0  0  0  0
   -3.3030   -1.7415   -0.6454 H   0  0  0  0  0  0  0  0  0  0  0  0
   -1.7134   -1.0479    1.2961 H   0  0  0  0  0  0  0  0  0  0  0  0
   -1.0014   -2.1308    0.0817 H   0  0  0  0  0  0  0  0  0  0  0  0
   -0.7946    1.6179   -1.1074 H   0  0  0  0  0  0  0  0  0  0  0  0
   -0.2922    1.8481    0.6533 H   0  0  0  0  0  0  0  0  0  0  0  0
   -2.4810    0.8454    1.3428 H   0  0  0  0  0  0  0  0  0  0  0  0
   -2.6430    2.3027    0.1943 H   0  0  0  0  0  0  0  0  0  0  0  0
    0.6839   -1.0507   -1.4767 H   0  0  0  0  0  0  0  0  0  0  0  0
    0.7671   -2.0344    1.0723 H   0  0  0  0  0  0  0  0  0  0  0  0
    2.1361   -2.2210   -0.1013 H   0  0  0  0  0  0  0  0  0  0  0  0
    1.7534    0.0251    1.9059 H   0  0  0  0  0  0  0  0  0  0  0  0
    2.7520   -1.4443    2.1888 H   0  0  0  0  0  0  0  0  0  0  0  0
    3.2249   -0.8487   -1.1422 H   0  0  0  0  0  0  0  0  0  0  0  0
    3.9291    0.8497   -1.0281 H   0  0  0  0  0  0  0  0  0  0  0  0
    1.6246    0.9647   -1.8234 H   0  0  0  0  0  0  0  0  0  0  0  0
    1.6005    1.5023   -0.0678 H   0  0  0  0  0  0  0  0  0  0  0  0
    4.9717   -1.0034    1.9608 H   0  0  0  0  0  0  0  0  0  0  0  0
    4.5478   -1.8886    0.4799 H   0  0  0  0  0  0  0  0  0  0  0  0
    5.7309   -1.5515   -1.4557 H   0  0  0  0  0  0  0  0  0  0  0  0
    7.5177   -0.5467   -2.7155 H   0  0  0  0  0  0  0  0  0  0  0  0
    8.6737    1.4423   -1.7900 H   0  0  0  0  0  0  0  0  0  0  0  0
    7.9833    2.3564    0.3889 H   0  0  0  0  0  0  0  0  0  0  0  0
  1  2  1  0
  2  3  2  0
  3  4  1  0
  4  5  2  0
  5  6  1  0
  6  7  2  0
  6  8  1  0
  8  9  1  0
  9 10  2  0
  9 11  1  0
 11 12  1  0
 12 13  1  0
 13 14  1  0
 14 15  1  0
 15 16  1  0
 16 17  1  0
 15 18  1  0
 18 19  1  0
 19 20  1  0
 20 21  1  0
 21 22  1  0
 22 23  1  0
 21 24  1  0
 24 25  1  0
 25 26  2  0
 26 27  1  0
 27 28  2  0
 28 29  1  0
 29 30  2  0
 30 31  1  0
  7  2  1  0
 17 12  1  0
 23 18  1  0
 30 25  1  0
 11  5  1  0
  3 32  1  0
  4 33  1  0
  7 34  1  0
  8 35  1  0
 12 36  1  0
 13 37  1  0
 13 38  1  0
 14 39  1  0
 14 40  1  0
 16 41  1  0
 16 42  1  0
 17 43  1  0
 17 44  1  0
 18 45  1  0
 19 46  1  0
 19 47  1  0
 20 48  1  0
 20 49  1  0
 22 50  1  0
 22 51  1  0
 23 52  1  0
 23 53  1  0
 24 54  1  0
 24 55  1  0
 26 56  1  0
 27 57  1  0
 28 58  1  0
 29 59  1  0
M  END
>  <Ligand ID>  (1) 
LIG0000868

>  <Ligand>  (1) 
CHEMBL515489

>  <SMILES>  (1) 
Clc1ccc2c(c1)[nH]c(=O)n2C1CCN(CC1)C1CCN(CC1)Cc1ccccc1Cl

>  <CID>  (1) 
44578975.0

>  <ChEMBL ID>  (1) 
nan

>  <InChiKey>  (1) 
RVMQZHDDVVRTFF-UHFFFAOYSA-N

>  <InChi>  (1) 
InChI=1S/C24H28Cl2N4O/c25-18-5-6-23-22(15-18)27-24(31)30(23)20-9-13-29(14-10-20)19-7-11-28(12-8-19)16-17-3-1-2-4-21(17)26/h1-6,15,19-20H,7-14,16H2,(H,27,31)

>  <IUPAC Name>  (1) 
6-chloro-3-[1-[1-[(2-chlorophenyl)methyl]piperidin-4-yl]piperidin-4-yl]-1H-benzimidazol-2-one

$$$$
