
     RDKit          3D

 35 37  0  0  0  0  0  0  0  0999 V2000
    3.5946   -0.5486   -0.9851 C   0  0  0  0  0  0  0  0  0  0  0  0
    4.0432   -0.1264    0.4019 C   0  0  0  0  0  0  0  0  0  0  0  0
    2.9841   -0.4987    1.4080 C   0  0  0  0  0  0  0  0  0  0  0  0
    1.6808    0.1570    1.1288 C   0  0  0  0  0  0  0  0  0  0  0  0
    0.7102   -0.4254    0.3203 C   0  0  0  0  0  0  0  0  0  0  0  0
   -0.4984    0.2437    0.0954 C   0  0  0  0  0  0  0  0  0  0  0  0
   -1.5084   -0.3564   -0.7559 C   0  0  1  0  0  0  0  0  0  0  0  0
   -1.7201   -1.8243   -0.6703 C   0  0  0  0  0  0  0  0  0  0  0  0
   -3.0973   -2.0314   -1.1521 N   0  0  0  0  0  0  0  0  0  0  0  0
   -3.6837   -0.6868   -1.2937 C   0  0  0  0  0  0  0  0  0  0  0  0
   -2.9101    0.0626   -0.2765 C   0  0  2  0  0  0  0  0  0  0  0  0
   -2.9190    1.4986   -0.3731 N   0  0  0  0  0  0  0  0  0  0  0  0
   -1.9665    2.1879    0.4719 C   0  0  0  0  0  0  0  0  0  0  0  0
   -2.2197    3.3091    0.9745 O   0  0  0  0  0  0  0  0  0  0  0  0
   -0.6806    1.4931    0.7061 C   0  0  0  0  0  0  0  0  0  0  0  0
    0.2792    2.0647    1.5029 C   0  0  0  0  0  0  0  0  0  0  0  0
    1.4731    1.4036    1.7247 C   0  0  0  0  0  0  0  0  0  0  0  0
   -0.0097    3.6185    2.2308 Cl  0  0  0  0  0  0  0  0  0  0  0  0
    4.3159   -0.0495   -1.6933 H   0  0  0  0  0  0  0  0  0  0  0  0
    2.6026   -0.1168   -1.2298 H   0  0  0  0  0  0  0  0  0  0  0  0
    3.6568   -1.6397   -1.1189 H   0  0  0  0  0  0  0  0  0  0  0  0
    4.3278    0.9295    0.4456 H   0  0  0  0  0  0  0  0  0  0  0  0
    4.9425   -0.7345    0.6604 H   0  0  0  0  0  0  0  0  0  0  0  0
    2.7991   -1.5910    1.3318 H   0  0  0  0  0  0  0  0  0  0  0  0
    3.2998   -0.2676    2.4333 H   0  0  0  0  0  0  0  0  0  0  0  0
    0.9014   -1.4065   -0.1348 H   0  0  0  0  0  0  0  0  0  0  0  0
   -1.3960   -0.1036   -1.8330 H   0  0  0  0  0  0  0  0  0  0  0  0
   -1.7423   -2.0921    0.4182 H   0  0  0  0  0  0  0  0  0  0  0  0
   -1.0138   -2.4507   -1.2226 H   0  0  0  0  0  0  0  0  0  0  0  0
   -3.6843   -2.5355   -0.4483 H   0  0  0  0  0  0  0  0  0  0  0  0
   -4.7683   -0.7662   -1.0940 H   0  0  0  0  0  0  0  0  0  0  0  0
   -3.4597   -0.3237   -2.3073 H   0  0  0  0  0  0  0  0  0  0  0  0
   -3.0448   -0.3154    0.7368 H   0  0  0  0  0  0  0  0  0  0  0  0
   -3.5319    2.0651   -0.9771 H   0  0  0  0  0  0  0  0  0  0  0  0
    2.2435    1.8574    2.3615 H   0  0  0  0  0  0  0  0  0  0  0  0
  1  2  1  0
  2  3  1  0
  3  4  1  0
  4  5  2  0
  5  6  1  0
  6  7  1  0
  7  8  1  0
  8  9  1  0
  9 10  1  0
 10 11  1  0
 11 12  1  0
 12 13  1  0
 13 14  2  0
 13 15  1  0
 15 16  1  0
 16 17  2  0
 16 18  1  0
 17  4  1  0
 15  6  2  0
 11  7  1  0
  1 19  1  0
  1 20  1  0
  1 21  1  0
  2 22  1  0
  2 23  1  0
  3 24  1  0
  3 25  1  0
  5 26  1  0
  7 27  1  6
  8 28  1  0
  8 29  1  0
  9 30  1  0
 10 31  1  0
 10 32  1  0
 11 33  1  1
 12 34  1  0
 17 35  1  0
M  END
>  <Ligand ID>  (1) 
LIG0004175

>  <Ligand>  (1) 
CHEMBL2337498

>  <SMILES>  (1) 
CCCc1cc2[C@H]3CNC[C@@H]3NC(=O)c2c(c1)Cl

>  <CID>  (1) 
11673842.0

>  <ChEMBL ID>  (1) 
nan

>  <InChiKey>  (1) 
QTWUTKDZRHYLST-PWSUYJOCSA-N

>  <InChi>  (1) 
InChI=1S/C14H17ClN2O/c1-2-3-8-4-9-10-6-16-7-12(10)17-14(18)13(9)11(15)5-8/h4-5,10,12,16H,2-3,6-7H2,1H3,(H,17,18)/t10-,12+/m1/s1

>  <IUPAC Name>  (1) 
(3aR,9bS)-6-chloro-8-propyl-1,2,3,3a,4,9b-hexahydropyrrolo[3,4-c]isoquinolin-5-one

$$$$
