
     RDKit          3D

 91 96  0  0  0  0  0  0  0  0999 V2000
   -0.4998    7.6393    0.6169 N   0  0  0  0  0  0  0  0  0  0  0  0
    0.5981    6.7568    0.4878 C   0  0  0  0  0  0  0  0  0  0  0  0
    0.5457    5.5762    1.0241 N   0  0  0  0  0  0  0  0  0  0  0  0
    1.6326    4.6231    0.9302 C   0  0  0  0  0  0  0  0  0  0  0  0
    1.1851    3.2756    0.4067 C   0  0  0  0  0  0  0  0  0  0  0  0
    2.3556    2.3452    0.3347 C   0  0  0  0  0  0  0  0  0  0  0  0
    1.8454    1.0084   -0.1975 C   0  0  1  0  0  0  0  0  0  0  0  0
    2.9831    0.0244   -0.2947 C   0  0  0  0  0  0  0  0  0  0  0  0
    3.0757   -0.5838    1.0776 C   0  0  2  0  0  0  0  0  0  0  0  0
    1.8713   -0.0428    1.8313 C   0  0  0  0  0  0  0  0  0  0  0  0
    0.9592    0.3935    0.7520 N   0  0  0  0  0  0  0  0  0  0  0  0
   -0.4206    0.1795    0.8181 C   0  0  0  0  0  0  0  0  0  0  0  0
   -0.8590   -0.3958    1.8770 O   0  0  0  0  0  0  0  0  0  0  0  0
   -1.4363    0.5376   -0.1861 C   0  0  2  0  0  0  0  0  0  0  0  0
   -2.7270    0.1873    0.3975 N   0  0  0  0  0  0  0  0  0  0  0  0
   -3.7721    1.1351    0.5816 C   0  0  0  0  0  0  0  0  0  0  0  0
   -3.6288    2.3575    0.2424 O   0  0  0  0  0  0  0  0  0  0  0  0
   -5.0313    0.6268    1.1864 C   0  0  1  0  0  0  0  0  0  0  0  0
   -5.9502    1.7227    1.3010 N   0  0  0  0  0  0  0  0  0  0  0  0
   -6.9812    1.6646    0.2840 C   0  0  0  0  0  0  0  0  0  0  0  0
   -7.7715    0.4393    0.5920 C   0  0  0  0  0  0  0  0  0  0  0  0
   -7.0260   -0.7380    0.7092 C   0  0  0  0  0  0  0  0  0  0  0  0
   -5.5617   -0.5932    0.5120 C   0  0  0  0  0  0  0  0  0  0  0  0
   -7.6421   -1.9384    0.9899 C   0  0  0  0  0  0  0  0  0  0  0  0
   -9.0018   -1.9387    1.1492 C   0  0  0  0  0  0  0  0  0  0  0  0
   -9.7650   -0.7697    1.0353 C   0  0  0  0  0  0  0  0  0  0  0  0
   -9.1348    0.4357    0.7521 C   0  0  0  0  0  0  0  0  0  0  0  0
   -1.2600   -0.3198   -1.4519 C   0  0  0  0  0  0  0  0  0  0  0  0
   -1.3978   -1.7488   -1.1424 C   0  0  0  0  0  0  0  0  0  0  0  0
   -0.2644   -2.4517   -0.7911 C   0  0  0  0  0  0  0  0  0  0  0  0
   -0.2795   -3.7992   -0.4773 C   0  0  0  0  0  0  0  0  0  0  0  0
   -1.4680   -4.4942   -0.5094 C   0  0  0  0  0  0  0  0  0  0  0  0
   -2.5988   -3.7883   -0.8609 C   0  0  0  0  0  0  0  0  0  0  0  0
   -2.5865   -2.4466   -1.1740 C   0  0  0  0  0  0  0  0  0  0  0  0
    4.2687   -0.2265    1.6248 O   0  0  0  0  0  0  0  0  0  0  0  0
    5.1522   -1.2115    1.9476 C   0  0  0  0  0  0  0  0  0  0  0  0
    5.5553   -2.0231    0.8056 C   0  0  0  0  0  0  0  0  0  0  0  0
    4.9751   -3.2419    0.4543 C   0  0  0  0  0  0  0  0  0  0  0  0
    5.3915   -3.9597   -0.6483 C   0  0  0  0  0  0  0  0  0  0  0  0
    6.4049   -3.5060   -1.4596 C   0  0  0  0  0  0  0  0  0  0  0  0
    6.9887   -2.3092   -1.1309 C   0  0  0  0  0  0  0  0  0  0  0  0
    6.5861   -1.5777   -0.0330 C   0  0  0  0  0  0  0  0  0  0  0  0
    8.0149   -1.8743   -1.9712 C   0  0  0  0  0  0  0  0  0  0  0  0
    8.4137   -2.6084   -3.0655 C   0  0  0  0  0  0  0  0  0  0  0  0
    7.7927   -3.7969   -3.3437 C   0  0  0  0  0  0  0  0  0  0  0  0
    6.7723   -4.2712   -2.5435 C   0  0  0  0  0  0  0  0  0  0  0  0
    1.7361    7.2156   -0.2413 N   0  0  0  0  0  0  0  0  0  0  0  0
   -1.4778    7.2760    0.7305 H   0  0  0  0  0  0  0  0  0  0  0  0
   -0.3341    8.6866    0.5985 H   0  0  0  0  0  0  0  0  0  0  0  0
    2.3846    5.0416    0.2160 H   0  0  0  0  0  0  0  0  0  0  0  0
    2.1360    4.4849    1.8983 H   0  0  0  0  0  0  0  0  0  0  0  0
    0.7444    3.4314   -0.5999 H   0  0  0  0  0  0  0  0  0  0  0  0
    0.3627    2.8761    1.0278 H   0  0  0  0  0  0  0  0  0  0  0  0
    3.0656    2.7330   -0.4297 H   0  0  0  0  0  0  0  0  0  0  0  0
    2.8491    2.2459    1.3076 H   0  0  0  0  0  0  0  0  0  0  0  0
    1.4415    1.1330   -1.2114 H   0  0  0  0  0  0  0  0  0  0  0  0
    2.7137   -0.7283   -1.0692 H   0  0  0  0  0  0  0  0  0  0  0  0
    3.9347    0.5365   -0.5734 H   0  0  0  0  0  0  0  0  0  0  0  0
    2.9838   -1.6880    0.9558 H   0  0  0  0  0  0  0  0  0  0  0  0
    2.1200    0.7818    2.5185 H   0  0  0  0  0  0  0  0  0  0  0  0
    1.4358   -0.8862    2.3922 H   0  0  0  0  0  0  0  0  0  0  0  0
   -1.3404    1.5774   -0.4841 H   0  0  0  0  0  0  0  0  0  0  0  0
   -2.8368   -0.8152    0.6743 H   0  0  0  0  0  0  0  0  0  0  0  0
   -4.7876    0.3261    2.2400 H   0  0  0  0  0  0  0  0  0  0  0  0
   -5.4973    2.6433    1.2480 H   0  0  0  0  0  0  0  0  0  0  0  0
   -6.5569    1.5181   -0.7310 H   0  0  0  0  0  0  0  0  0  0  0  0
   -7.5797    2.5777    0.2399 H   0  0  0  0  0  0  0  0  0  0  0  0
   -5.0636   -1.5112    0.8903 H   0  0  0  0  0  0  0  0  0  0  0  0
   -5.3965   -0.6095   -0.5818 H   0  0  0  0  0  0  0  0  0  0  0  0
   -7.0073   -2.8086    1.0660 H   0  0  0  0  0  0  0  0  0  0  0  0
   -9.5070   -2.8833    1.3720 H   0  0  0  0  0  0  0  0  0  0  0  0
  -10.8409   -0.8104    1.1689 H   0  0  0  0  0  0  0  0  0  0  0  0
   -9.6706    1.3644    0.6525 H   0  0  0  0  0  0  0  0  0  0  0  0
   -2.1649   -0.0388   -2.0743 H   0  0  0  0  0  0  0  0  0  0  0  0
   -0.4096   -0.0193   -2.0408 H   0  0  0  0  0  0  0  0  0  0  0  0
    0.6864   -1.9579   -0.7498 H   0  0  0  0  0  0  0  0  0  0  0  0
    0.6474   -4.2945   -0.2090 H   0  0  0  0  0  0  0  0  0  0  0  0
   -1.4599   -5.5430   -0.2610 H   0  0  0  0  0  0  0  0  0  0  0  0
   -3.5317   -4.3646   -0.8782 H   0  0  0  0  0  0  0  0  0  0  0  0
   -3.4815   -1.9083   -1.4478 H   0  0  0  0  0  0  0  0  0  0  0  0
    4.7985   -1.8535    2.8038 H   0  0  0  0  0  0  0  0  0  0  0  0
    6.1008   -0.7312    2.3383 H   0  0  0  0  0  0  0  0  0  0  0  0
    4.1917   -3.6653    1.0435 H   0  0  0  0  0  0  0  0  0  0  0  0
    4.9127   -4.8983   -0.8819 H   0  0  0  0  0  0  0  0  0  0  0  0
    7.1056   -0.6443    0.1468 H   0  0  0  0  0  0  0  0  0  0  0  0
    8.4696   -0.9364   -1.7084 H   0  0  0  0  0  0  0  0  0  0  0  0
    9.2047   -2.2789   -3.7183 H   0  0  0  0  0  0  0  0  0  0  0  0
    8.0568   -4.4295   -4.1939 H   0  0  0  0  0  0  0  0  0  0  0  0
    6.2601   -5.1998   -2.7284 H   0  0  0  0  0  0  0  0  0  0  0  0
    2.1083    6.6835   -1.0694 H   0  0  0  0  0  0  0  0  0  0  0  0
    2.1901    8.0983    0.0722 H   0  0  0  0  0  0  0  0  0  0  0  0
  1  2  1  0
  2  3  2  3
  3  4  1  0
  4  5  1  0
  5  6  1  0
  6  7  1  0
  7  8  1  0
  8  9  1  0
  9 10  1  0
 10 11  1  0
 11 12  1  0
 12 13  2  0
 12 14  1  0
 14 15  1  0
 15 16  1  0
 16 17  2  0
 16 18  1  0
 18 19  1  0
 19 20  1  0
 20 21  1  0
 21 22  2  0
 22 23  1  0
 22 24  1  0
 24 25  2  0
 25 26  1  0
 26 27  2  0
 14 28  1  0
 28 29  1  0
 29 30  2  0
 30 31  1  0
 31 32  2  0
 32 33  1  0
 33 34  2  0
  9 35  1  0
 35 36  1  0
 36 37  1  0
 37 38  2  0
 38 39  1  0
 39 40  2  0
 40 41  1  0
 41 42  2  0
 41 43  1  0
 43 44  2  0
 44 45  1  0
 45 46  2  0
  2 47  1  0
 11  7  1  0
 23 18  1  0
 34 29  1  0
 42 37  1  0
 27 21  1  0
 46 40  1  0
  1 48  1  0
  1 49  1  0
  4 50  1  0
  4 51  1  0
  5 52  1  0
  5 53  1  0
  6 54  1  0
  6 55  1  0
  7 56  1  6
  8 57  1  0
  8 58  1  0
  9 59  1  6
 10 60  1  0
 10 61  1  0
 14 62  1  6
 15 63  1  0
 18 64  1  1
 19 65  1  0
 20 66  1  0
 20 67  1  0
 23 68  1  0
 23 69  1  0
 24 70  1  0
 25 71  1  0
 26 72  1  0
 27 73  1  0
 28 74  1  0
 28 75  1  0
 30 76  1  0
 31 77  1  0
 32 78  1  0
 33 79  1  0
 34 80  1  0
 36 81  1  0
 36 82  1  0
 38 83  1  0
 39 84  1  0
 42 85  1  0
 43 86  1  0
 44 87  1  0
 45 88  1  0
 46 89  1  0
 47 90  1  0
 47 91  1  0
M  END
>  <Ligand ID>  (1) 
LIG0002425

>  <Ligand>  (1) 
CHEMBL214347

>  <SMILES>  (1) 
NC(=NCCC[C@H]1C[C@H](CN1C(=O)[C@H](NC(=O)[C@H]1NCc2c(C1)cccc2)Cc1ccccc1)OCc1ccc2c(c1)cccc2)N

>  <CID>  (1) 
11845272.0

>  <ChEMBL ID>  (1) 
nan

>  <InChiKey>  (1) 
GBTCAHLJDYHAKJ-OQIMXIDESA-N

>  <InChi>  (1) 
InChI=1S/C38H44N6O3/c39-38(40)41-18-8-15-32-22-33(47-25-27-16-17-28-11-4-5-12-29(28)19-27)24-44(32)37(46)35(20-26-9-2-1-3-10-26)43-36(45)34-21-30-13-6-7-14-31(30)23-42-34/h1-7,9-14,16-17,19,32-35,42H,8,15,18,20-25H2,(H,43,45)(H4,39,40,41)/t32-,33+,34-,35+/m0/s1

>  <IUPAC Name>  (1) 
(3S)-N-[(2R)-1-[(2S,4R)-2-[3-(diaminomethylideneamino)propyl]-4-(naphthalen-2-ylmethoxy)pyrrolidin-1-yl]-1-oxo-3-phenylpropan-2-yl]-1,2,3,4-tetrahydroisoquinoline-3-carboxamide

$$$$
