
     RDKit          3D

 94 97  0  0  0  0  0  0  0  0999 V2000
    0.4819    8.9505   -1.9586 N   0  0  0  0  0  0  0  0  0  0  0  0
    1.3954    7.8439   -1.9709 C   0  0  0  0  0  0  0  0  0  0  0  0
    1.5271    7.1434   -0.8998 N   0  0  0  0  0  0  0  0  0  0  0  0
    2.3957    6.0169   -0.7630 C   0  0  0  0  0  0  0  0  0  0  0  0
    1.6715    4.7222   -1.1552 C   0  0  0  0  0  0  0  0  0  0  0  0
    2.6002    3.5466   -1.0054 C   0  0  0  0  0  0  0  0  0  0  0  0
    1.9908    2.2335   -1.3601 C   0  0  1  0  0  0  0  0  0  0  0  0
    3.0333    1.1559   -1.1626 C   0  0  0  0  0  0  0  0  0  0  0  0
    4.0805    1.2577   -1.8789 O   0  0  0  0  0  0  0  0  0  0  0  0
    2.8446    0.0988   -0.2319 N   0  0  0  0  0  0  0  0  0  0  0  0
    3.8703   -0.9476   -0.0506 C   0  0  2  0  0  0  0  0  0  0  0  0
    3.3449   -2.2184   -0.4930 C   0  0  0  0  0  0  0  0  0  0  0  0
    4.0116   -3.3029   -0.5932 O   0  0  0  0  0  0  0  0  0  0  0  0
    1.9667   -2.3365   -0.8645 N   0  0  0  0  0  0  0  0  0  0  0  0
    4.3599   -0.8217    1.3528 C   0  0  0  0  0  0  0  0  0  0  0  0
    5.3701   -1.8246    1.6767 C   0  0  0  0  0  0  0  0  0  0  0  0
    6.7358   -1.6137    1.5526 C   0  0  0  0  0  0  0  0  0  0  0  0
    7.4037   -2.7377    1.8977 N   0  0  0  0  0  0  0  0  0  0  0  0
    6.5043   -3.6959    2.2513 C   0  0  0  0  0  0  0  0  0  0  0  0
    5.2557   -3.1278    2.1134 C   0  0  0  0  0  0  0  0  0  0  0  0
    4.1759   -3.9341    2.4434 C   0  0  0  0  0  0  0  0  0  0  0  0
    4.3112   -5.2125    2.8783 C   0  0  0  0  0  0  0  0  0  0  0  0
    5.5704   -5.7619    3.0078 C   0  0  0  0  0  0  0  0  0  0  0  0
    6.6636   -4.9903    2.6900 C   0  0  0  0  0  0  0  0  0  0  0  0
    0.9092    1.9105   -0.4517 N   0  0  0  0  0  0  0  0  0  0  0  0
   -0.3901    1.5163   -0.9034 C   0  0  0  0  0  0  0  0  0  0  0  0
   -0.6559    1.4279   -2.1481 O   0  0  0  0  0  0  0  0  0  0  0  0
   -1.4680    1.1977    0.0683 C   0  0  1  0  0  0  0  0  0  0  0  0
   -2.6287    0.7943   -0.6523 N   0  0  0  0  0  0  0  0  0  0  0  0
   -2.6913   -0.5312   -1.1578 C   0  0  0  0  0  0  0  0  0  0  0  0
   -1.6924   -1.2672   -0.9325 O   0  0  0  0  0  0  0  0  0  0  0  0
   -3.8093   -1.0991   -1.9078 C   0  0  2  0  0  0  0  0  0  0  0  0
   -5.1141   -1.0602   -1.1263 C   0  0  0  0  0  0  0  0  0  0  0  0
   -6.2767   -1.5339   -1.9174 C   0  0  0  0  0  0  0  0  0  0  0  0
   -6.3179   -1.9605   -3.2132 N   0  0  0  0  0  0  0  0  0  0  0  0
   -7.6080   -2.2675   -3.4413 C   0  0  0  0  0  0  0  0  0  0  0  0
   -8.3592   -2.0504   -2.3501 N   0  0  0  0  0  0  0  0  0  0  0  0
   -7.5538   -1.5984   -1.4023 C   0  0  0  0  0  0  0  0  0  0  0  0
   -3.5160   -2.4978   -2.1973 N   0  0  0  0  0  0  0  0  0  0  0  0
   -4.1735   -3.6534   -1.8203 C   0  0  0  0  0  0  0  0  0  0  0  0
   -5.1927   -3.7916   -1.1106 O   0  0  0  0  0  0  0  0  0  0  0  0
   -3.5990   -4.9656   -2.3248 C   0  0  0  0  0  0  0  0  0  0  0  0
   -1.0431    0.3658    1.2212 C   0  0  0  0  0  0  0  0  0  0  0  0
   -2.1771    0.1320    2.1313 C   0  0  0  0  0  0  0  0  0  0  0  0
   -2.4268    1.1087    3.1043 C   0  0  0  0  0  0  0  0  0  0  0  0
   -3.4486    0.9885    4.0199 C   0  0  0  0  0  0  0  0  0  0  0  0
   -4.2680   -0.1269    3.9947 C   0  0  0  0  0  0  0  0  0  0  0  0
   -4.0424   -1.1006    3.0476 C   0  0  0  0  0  0  0  0  0  0  0  0
   -2.9994   -0.9493    2.1349 C   0  0  0  0  0  0  0  0  0  0  0  0
   -5.3170   -0.3122    4.8883 O   0  0  0  0  0  0  0  0  0  0  0  0
    2.1099    7.5773   -3.1734 N   0  0  0  0  0  0  0  0  0  0  0  0
    0.7391    9.7780   -2.5385 H   0  0  0  0  0  0  0  0  0  0  0  0
   -0.3966    8.9514   -1.4085 H   0  0  0  0  0  0  0  0  0  0  0  0
    3.3301    6.0937   -1.3570 H   0  0  0  0  0  0  0  0  0  0  0  0
    2.6605    5.9103    0.3006 H   0  0  0  0  0  0  0  0  0  0  0  0
    0.8074    4.5852   -0.5035 H   0  0  0  0  0  0  0  0  0  0  0  0
    1.3463    4.8325   -2.2133 H   0  0  0  0  0  0  0  0  0  0  0  0
    3.4205    3.7226   -1.7644 H   0  0  0  0  0  0  0  0  0  0  0  0
    3.1312    3.5444   -0.0375 H   0  0  0  0  0  0  0  0  0  0  0  0
    1.6543    2.2347   -2.4182 H   0  0  0  0  0  0  0  0  0  0  0  0
    1.9623    0.0855    0.3167 H   0  0  0  0  0  0  0  0  0  0  0  0
    4.6738   -0.6170   -0.7919 H   0  0  0  0  0  0  0  0  0  0  0  0
    1.4024   -1.4989   -1.1639 H   0  0  0  0  0  0  0  0  0  0  0  0
    1.4505   -3.2417   -0.8605 H   0  0  0  0  0  0  0  0  0  0  0  0
    4.7539    0.2253    1.5084 H   0  0  0  0  0  0  0  0  0  0  0  0
    3.4825   -0.8961    2.0467 H   0  0  0  0  0  0  0  0  0  0  0  0
    7.2061   -0.7017    1.2318 H   0  0  0  0  0  0  0  0  0  0  0  0
    8.4355   -2.9124    1.9140 H   0  0  0  0  0  0  0  0  0  0  0  0
    3.1934   -3.4622    2.3271 H   0  0  0  0  0  0  0  0  0  0  0  0
    3.4179   -5.8002    3.1240 H   0  0  0  0  0  0  0  0  0  0  0  0
    5.6366   -6.7833    3.3573 H   0  0  0  0  0  0  0  0  0  0  0  0
    7.6352   -5.4607    2.8062 H   0  0  0  0  0  0  0  0  0  0  0  0
    1.1295    1.9810    0.5693 H   0  0  0  0  0  0  0  0  0  0  0  0
   -1.7663    2.1790    0.5412 H   0  0  0  0  0  0  0  0  0  0  0  0
   -3.4676    1.3994   -0.8529 H   0  0  0  0  0  0  0  0  0  0  0  0
   -3.9820   -0.5771   -2.8588 H   0  0  0  0  0  0  0  0  0  0  0  0
   -5.0912   -1.6109   -0.1862 H   0  0  0  0  0  0  0  0  0  0  0  0
   -5.2902    0.0214   -0.8743 H   0  0  0  0  0  0  0  0  0  0  0  0
   -5.4911   -2.0153   -3.8433 H   0  0  0  0  0  0  0  0  0  0  0  0
   -7.9579   -2.6424   -4.4060 H   0  0  0  0  0  0  0  0  0  0  0  0
   -7.8971   -1.3351   -0.3979 H   0  0  0  0  0  0  0  0  0  0  0  0
   -2.6365   -2.6148   -2.8060 H   0  0  0  0  0  0  0  0  0  0  0  0
   -3.8658   -5.7991   -1.6442 H   0  0  0  0  0  0  0  0  0  0  0  0
   -3.9837   -5.2201   -3.3259 H   0  0  0  0  0  0  0  0  0  0  0  0
   -2.4766   -4.9251   -2.3025 H   0  0  0  0  0  0  0  0  0  0  0  0
   -0.2957    0.9667    1.7871 H   0  0  0  0  0  0  0  0  0  0  0  0
   -0.5026   -0.5599    0.9512 H   0  0  0  0  0  0  0  0  0  0  0  0
   -1.8205    2.0024    3.1739 H   0  0  0  0  0  0  0  0  0  0  0  0
   -3.6251    1.7496    4.7609 H   0  0  0  0  0  0  0  0  0  0  0  0
   -4.6666   -1.9820    3.0046 H   0  0  0  0  0  0  0  0  0  0  0  0
   -2.8729   -1.7439    1.4344 H   0  0  0  0  0  0  0  0  0  0  0  0
   -5.9121    0.4613    5.1251 H   0  0  0  0  0  0  0  0  0  0  0  0
    1.6115    7.0699   -3.9194 H   0  0  0  0  0  0  0  0  0  0  0  0
    3.1024    7.9091   -3.2394 H   0  0  0  0  0  0  0  0  0  0  0  0
  1  2  1  0
  2  3  2  3
  3  4  1  0
  4  5  1  0
  5  6  1  0
  6  7  1  0
  7  8  1  0
  8  9  2  0
  8 10  1  0
 10 11  1  0
 11 12  1  0
 12 13  2  0
 12 14  1  0
 11 15  1  0
 15 16  1  0
 16 17  2  0
 17 18  1  0
 18 19  1  0
 19 20  2  0
 20 21  1  0
 21 22  2  0
 22 23  1  0
 23 24  2  0
  7 25  1  0
 25 26  1  0
 26 27  2  0
 26 28  1  0
 28 29  1  0
 29 30  1  0
 30 31  2  0
 30 32  1  0
 32 33  1  0
 33 34  1  0
 34 35  1  0
 35 36  1  0
 36 37  2  0
 37 38  1  0
 32 39  1  0
 39 40  1  0
 40 41  2  0
 40 42  1  0
 28 43  1  0
 43 44  1  0
 44 45  2  0
 45 46  1  0
 46 47  2  0
 47 48  1  0
 48 49  2  0
 47 50  1  0
  2 51  1  0
 20 16  1  0
 38 34  2  0
 49 44  1  0
 24 19  1  0
  1 52  1  0
  1 53  1  0
  4 54  1  0
  4 55  1  0
  5 56  1  0
  5 57  1  0
  6 58  1  0
  6 59  1  0
  7 60  1  6
 10 61  1  0
 11 62  1  6
 14 63  1  0
 14 64  1  0
 15 65  1  0
 15 66  1  0
 17 67  1  0
 18 68  1  0
 21 69  1  0
 22 70  1  0
 23 71  1  0
 24 72  1  0
 25 73  1  0
 28 74  1  1
 29 75  1  0
 32 76  1  6
 33 77  1  0
 33 78  1  0
 35 79  1  0
 36 80  1  0
 38 81  1  0
 39 82  1  0
 42 83  1  0
 42 84  1  0
 42 85  1  0
 43 86  1  0
 43 87  1  0
 45 88  1  0
 46 89  1  0
 48 90  1  0
 49 91  1  0
 50 92  1  0
 51 93  1  0
 51 94  1  0
M  END
>  <Ligand ID>  (1) 
LIG0001402

>  <Ligand>  (1) 
CHEMBL104880

>  <SMILES>  (1) 
NC(=NCCC[C@@H](C(=O)N[C@H](C(=O)N)Cc1c[nH]c2c1cccc2)NC(=O)[C@@H](NC(=O)[C@H](Cc1[nH]cnc1)NC(=O)C)Cc1ccc(cc1)O)N

>  <CID>  (1) 
10919573.0

>  <ChEMBL ID>  (1) 
nan

>  <InChiKey>  (1) 
FGCBZBMPOFJXID-DZUOILHNSA-N

>  <InChi>  (1) 
InChI=1S/C34H43N11O6/c1-19(46)42-29(15-22-17-38-18-41-22)33(51)45-28(13-20-8-10-23(47)11-9-20)32(50)43-26(7-4-12-39-34(36)37)31(49)44-27(30(35)48)14-21-16-40-25-6-3-2-5-24(21)25/h2-3,5-6,8-11,16-18,26-29,40,47H,4,7,12-15H2,1H3,(H2,35,48)(H,38,41)(H,42,46)(H,43,50)(H,44,49)(H,45,51)(H4,36,37,39)/t26-,27-,28-,29-/m0/s1

>  <IUPAC Name>  (1) 
(2S)-2-[[(2S)-2-[[(2S)-2-acetamido-3-(1H-imidazol-5-yl)propanoyl]amino]-3-(4-hydroxyphenyl)propanoyl]amino]-N-[(2S)-1-amino-3-(1H-indol-3-yl)-1-oxopropan-2-yl]-5-(diaminomethylideneamino)pentanamide

$$$$
