
     RDKit          3D

 38 41  0  0  0  0  0  0  0  0999 V2000
   -2.9392   -1.1078   -1.1668 N   0  0  0  0  0  0  0  0  0  0  0  0
   -2.4642   -1.8496   -0.0316 C   0  0  0  0  0  0  0  0  0  0  0  0
   -0.9867   -1.4737    0.1244 C   0  0  0  0  0  0  0  0  0  0  0  0
   -0.8697    0.0078    0.1697 C   0  0  0  0  0  0  0  0  0  0  0  0
   -1.9114    0.9360    0.2705 C   0  0  0  0  0  0  0  0  0  0  0  0
   -3.3786    0.7486    0.3435 C   0  0  0  0  0  0  0  0  0  0  0  0
   -3.8997   -0.1377   -0.7401 C   0  0  0  0  0  0  0  0  0  0  0  0
   -1.5745    2.2165    0.3034 N   0  0  0  0  0  0  0  0  0  0  0  0
   -0.3034    2.6071    0.2437 C   0  0  0  0  0  0  0  0  0  0  0  0
    0.7245    1.7446    0.1459 N   0  0  0  0  0  0  0  0  0  0  0  0
    0.4546    0.4027    0.1063 C   0  0  0  0  0  0  0  0  0  0  0  0
    1.5427   -0.5001    0.0038 N   0  0  0  0  0  0  0  0  0  0  0  0
    2.6036   -0.3334   -0.9992 C   0  0  0  0  0  0  0  0  0  0  0  0
    3.8246   -0.9714   -0.4266 C   0  0  0  0  0  0  0  0  0  0  0  0
    3.4275   -1.6679    0.8320 C   0  0  0  0  0  0  0  0  0  0  0  0
    1.8967   -1.6743    0.7395 C   0  0  0  0  0  0  0  0  0  0  0  0
    1.8515    2.4208    0.1111 N   0  0  0  0  0  0  0  0  0  0  0  0
    1.5753    3.7279    0.1853 C   0  0  0  0  0  0  0  0  0  0  0  0
    0.2087    3.8910    0.2713 C   0  0  0  0  0  0  0  0  0  0  0  0
   -3.3792   -1.7201   -1.8990 H   0  0  0  0  0  0  0  0  0  0  0  0
   -3.0136   -1.5369    0.9006 H   0  0  0  0  0  0  0  0  0  0  0  0
   -2.5865   -2.9339   -0.1146 H   0  0  0  0  0  0  0  0  0  0  0  0
   -0.4549   -1.9516   -0.6951 H   0  0  0  0  0  0  0  0  0  0  0  0
   -0.7237   -1.8394    1.1418 H   0  0  0  0  0  0  0  0  0  0  0  0
   -3.6529    0.3992    1.3677 H   0  0  0  0  0  0  0  0  0  0  0  0
   -3.8567    1.7552    0.1813 H   0  0  0  0  0  0  0  0  0  0  0  0
   -4.2882    0.4346   -1.6084 H   0  0  0  0  0  0  0  0  0  0  0  0
   -4.7559   -0.7183   -0.3008 H   0  0  0  0  0  0  0  0  0  0  0  0
    2.3210   -0.7753   -1.9768 H   0  0  0  0  0  0  0  0  0  0  0  0
    2.8172    0.7317   -1.2012 H   0  0  0  0  0  0  0  0  0  0  0  0
    4.2612   -1.7142   -1.1417 H   0  0  0  0  0  0  0  0  0  0  0  0
    4.6479   -0.2535   -0.2265 H   0  0  0  0  0  0  0  0  0  0  0  0
    3.8233   -2.7053    0.8634 H   0  0  0  0  0  0  0  0  0  0  0  0
    3.7659   -1.1491    1.7550 H   0  0  0  0  0  0  0  0  0  0  0  0
    1.5553   -1.7167    1.7805 H   0  0  0  0  0  0  0  0  0  0  0  0
    1.6777   -2.6247    0.1700 H   0  0  0  0  0  0  0  0  0  0  0  0
    2.3592    4.4884    0.1729 H   0  0  0  0  0  0  0  0  0  0  0  0
   -0.2995    4.8426    0.3447 H   0  0  0  0  0  0  0  0  0  0  0  0
  1  2  1  0
  2  3  1  0
  3  4  1  0
  4  5  1  0
  5  6  1  0
  6  7  1  0
  5  8  2  0
  8  9  1  0
  9 10  1  0
 10 11  1  0
 11 12  1  0
 12 13  1  0
 13 14  1  0
 14 15  1  0
 15 16  1  0
 10 17  1  0
 17 18  2  0
 18 19  1  0
  7  1  1  0
 19  9  2  0
 11  4  2  0
 16 12  1  0
  1 20  1  0
  2 21  1  0
  2 22  1  0
  3 23  1  0
  3 24  1  0
  6 25  1  0
  6 26  1  0
  7 27  1  0
  7 28  1  0
 13 29  1  0
 13 30  1  0
 14 31  1  0
 14 32  1  0
 15 33  1  0
 15 34  1  0
 16 35  1  0
 16 36  1  0
 18 37  1  0
 19 38  1  0
M  END
>  <Ligand ID>  (1) 
LIG0003081

>  <Ligand>  (1) 
CHEMBL1643671

>  <SMILES>  (1) 
N1CCc2c(CC1)nc1n(c2N2CCCC2)ncc1

>  <CID>  (1) 
53321947.0

>  <ChEMBL ID>  (1) 
nan

>  <InChiKey>  (1) 
SZYAPIOMACUCDF-UHFFFAOYSA-N

>  <InChi>  (1) 
InChI=1S/C14H19N5/c1-2-10-18(9-1)14-11-3-6-15-7-4-12(11)17-13-5-8-16-19(13)14/h5,8,15H,1-4,6-7,9-10H2

>  <IUPAC Name>  (1) 
8-pyrrolidin-1-yl-2,6,7,12-tetrazatricyclo[7.5.0.03,7]tetradeca-1,3,5,8-tetraene

$$$$
