
     RDKit          3D

185191  0  0  0  0  0  0  0  0999 V2000
    3.5799   -7.1408   -1.6069 N   0  0  0  0  0  0  0  0  0  0  0  0
    4.5889   -6.3324   -2.1957 C   0  0  0  0  0  0  0  0  0  0  0  0
    5.5650   -6.8440   -2.8682 N   0  0  0  0  0  0  0  0  0  0  0  0
    4.5411   -4.9245   -2.0640 N   0  0  0  0  0  0  0  0  0  0  0  0
    5.6650   -4.0435   -2.1885 C   0  0  0  0  0  0  0  0  0  0  0  0
    6.6330   -4.2201   -1.0532 C   0  0  0  0  0  0  0  0  0  0  0  0
    6.1352   -4.0512    0.3146 C   0  0  0  0  0  0  0  0  0  0  0  0
    5.5443   -2.7196    0.7288 C   0  0  2  0  0  0  0  0  0  0  0  0
    4.3926   -2.3294   -0.0429 N   0  0  0  0  0  0  0  0  0  0  0  0
    3.0868   -2.6057    0.4972 C   0  0  0  0  0  0  0  0  0  0  0  0
    3.0646   -3.1548    1.5968 O   0  0  0  0  0  0  0  0  0  0  0  0
    1.8125   -2.2770   -0.1620 C   0  0  2  0  0  0  0  0  0  0  0  0
    1.7607   -0.7625   -0.4592 C   0  0  0  0  0  0  0  0  0  0  0  0
    0.6790   -2.6319    0.6655 N   0  0  0  0  0  0  0  0  0  0  0  0
   -0.6063   -3.0120    0.1812 C   0  0  0  0  0  0  0  0  0  0  0  0
   -0.7456   -3.0527   -1.0290 O   0  0  0  0  0  0  0  0  0  0  0  0
   -1.6907   -3.3168    1.1964 C   0  0  2  0  0  0  0  0  0  0  0  0
   -1.6243   -4.6629    1.7888 C   0  0  0  0  0  0  0  0  0  0  0  0
   -0.3872   -4.9730    2.4829 C   0  0  0  0  0  0  0  0  0  0  0  0
    0.6827   -5.5639    1.8724 N   0  0  0  0  0  0  0  0  0  0  0  0
    1.6718   -5.7517    2.7466 C   0  0  0  0  0  0  0  0  0  0  0  0
    1.2853   -5.2928    3.9498 N   0  0  0  0  0  0  0  0  0  0  0  0
    0.0239   -4.8138    3.7921 C   0  0  0  0  0  0  0  0  0  0  0  0
   -2.9940   -3.1394    0.4966 N   0  0  0  0  0  0  0  0  0  0  0  0
   -3.5274   -1.7899    0.3567 C   0  0  0  0  0  0  0  0  0  0  0  0
   -2.7237   -0.9448    0.8070 O   0  0  0  0  0  0  0  0  0  0  0  0
   -4.8310   -1.5134   -0.2476 C   0  0  1  0  0  0  0  0  0  0  0  0
   -5.6658   -2.6711   -0.3022 N   0  0  0  0  0  0  0  0  0  0  0  0
   -6.2321   -3.2023   -1.5030 C   0  0  0  0  0  0  0  0  0  0  0  0
   -6.0035   -2.6606   -2.6034 O   0  0  0  0  0  0  0  0  0  0  0  0
   -7.0883   -4.3975   -1.3746 C   0  0  2  0  0  0  0  0  0  0  0  0
   -6.2791   -5.6653   -1.1056 C   0  0  0  0  0  0  0  0  0  0  0  0
   -7.2555   -6.7848   -0.9915 C   0  0  0  0  0  0  0  0  0  0  0  0
   -7.7320   -7.0569    0.2914 C   0  0  0  0  0  0  0  0  0  0  0  0
   -8.6513   -8.0777    0.4935 C   0  0  0  0  0  0  0  0  0  0  0  0
   -9.0962   -8.8296   -0.5844 C   0  0  0  0  0  0  0  0  0  0  0  0
   -8.6115   -8.5484   -1.8583 C   0  0  0  0  0  0  0  0  0  0  0  0
   -7.6891   -7.5238   -2.0633 C   0  0  0  0  0  0  0  0  0  0  0  0
  -10.0227   -9.8628   -0.3988 O   0  0  0  0  0  0  0  0  0  0  0  0
   -7.6981   -4.6156   -2.6870 N   0  0  0  0  0  0  0  0  0  0  0  0
   -5.5298   -0.2651    0.2786 C   0  0  0  0  0  0  0  0  0  0  0  0
   -4.8320    0.9397   -0.1677 C   0  0  0  0  0  0  0  0  0  0  0  0
   -3.6736    0.8605   -0.5636 O   0  0  0  0  0  0  0  0  0  0  0  0
   -5.3190    2.2789   -0.2333 N   0  0  0  0  0  0  0  0  0  0  0  0
   -6.6959    2.4801    0.0394 C   0  0  2  0  0  0  0  0  0  0  0  0
   -7.2072    2.1062    1.3284 C   0  0  0  0  0  0  0  0  0  0  0  0
   -6.3612    1.7850    2.2442 O   0  0  0  0  0  0  0  0  0  0  0  0
   -8.5514    2.0403    1.7531 N   0  0  0  0  0  0  0  0  0  0  0  0
   -7.5237    1.9962   -1.1213 C   0  0  0  0  0  0  0  0  0  0  0  0
   -8.9517    2.1140   -0.9357 C   0  0  0  0  0  0  0  0  0  0  0  0
   -9.7047    3.2507   -1.1801 C   0  0  0  0  0  0  0  0  0  0  0  0
  -11.0715    3.2094   -1.0143 C   0  0  0  0  0  0  0  0  0  0  0  0
  -11.7637    2.0860   -0.6108 C   0  0  0  0  0  0  0  0  0  0  0  0
  -11.0147    0.9526   -0.3669 C   0  0  0  0  0  0  0  0  0  0  0  0
   -9.6527    0.9662   -0.5246 C   0  0  0  0  0  0  0  0  0  0  0  0
  -13.1465    2.0796   -0.4539 O   0  0  0  0  0  0  0  0  0  0  0  0
   -4.3389    3.3258   -0.5878 C   0  0  0  0  0  0  0  0  0  0  0  0
   -3.8162    2.8602   -1.9719 C   0  0  0  0  0  0  0  0  0  0  0  0
   -3.1834    3.1985    0.3039 N   0  0  0  0  0  0  0  0  0  0  0  0
   -1.9474    3.8689    0.0656 C   0  0  0  0  0  0  0  0  0  0  0  0
   -1.9392    4.5925   -0.9502 O   0  0  0  0  0  0  0  0  0  0  0  0
   -0.7402    3.7595    0.8941 C   0  0  1  0  0  0  0  0  0  0  0  0
    0.3708    4.5191    0.2983 N   0  0  0  0  0  0  0  0  0  0  0  0
    1.6925    3.9312    0.1836 C   0  0  0  0  0  0  0  0  0  0  0  0
    1.7679    2.7974    0.6826 O   0  0  0  0  0  0  0  0  0  0  0  0
    2.7936    4.6642   -0.4697 C   0  0  1  0  0  0  0  0  0  0  0  0
    4.0376    3.9239   -0.4138 N   0  0  0  0  0  0  0  0  0  0  0  0
    5.2891    4.6334   -0.1731 C   0  0  0  0  0  0  0  0  0  0  0  0
    5.1100    5.8537   -0.0169 O   0  0  0  0  0  0  0  0  0  0  0  0
    6.5976    3.9880   -0.1271 C   0  0  1  0  0  0  0  0  0  0  0  0
    6.6150    2.5393   -0.1358 N   0  0  0  0  0  0  0  0  0  0  0  0
    7.6280    1.8360    0.6402 C   0  0  0  0  0  0  0  0  0  0  0  0
    8.3971    2.6217    1.2351 O   0  0  0  0  0  0  0  0  0  0  0  0
    7.7974    0.4199    0.7585 C   0  0  1  0  0  0  0  0  0  0  0  0
    6.6901   -0.4267    0.2817 N   0  0  0  0  0  0  0  0  0  0  0  0
    6.5826   -1.6922    0.9071 C   0  0  0  0  0  0  0  0  0  0  0  0
    7.5064   -1.9668    1.7139 O   0  0  0  0  0  0  0  0  0  0  0  0
    9.0973   -0.1116    0.1331 C   0  0  0  0  0  0  0  0  0  0  0  0
   10.3040    0.4510    0.7355 C   0  0  0  0  0  0  0  0  0  0  0  0
   10.9025   -0.1327    1.8690 C   0  0  0  0  0  0  0  0  0  0  0  0
   11.9449    0.6140    2.2605 N   0  0  0  0  0  0  0  0  0  0  0  0
   12.0636    1.6669    1.4339 C   0  0  0  0  0  0  0  0  0  0  0  0
   11.0560    1.5657    0.4946 C   0  0  0  0  0  0  0  0  0  0  0  0
   10.9825    2.5213   -0.4820 C   0  0  0  0  0  0  0  0  0  0  0  0
   11.8667    3.5753   -0.5605 C   0  0  0  0  0  0  0  0  0  0  0  0
   12.8793    3.6818    0.3850 C   0  0  0  0  0  0  0  0  0  0  0  0
   12.9520    2.7194    1.3635 C   0  0  0  0  0  0  0  0  0  0  0  0
    7.4089    4.4031   -1.3642 C   0  0  0  0  0  0  0  0  0  0  0  0
    7.6763    5.8376   -1.4597 C   0  0  0  0  0  0  0  0  0  0  0  0
    7.3896    6.7227   -0.6404 O   0  0  0  0  0  0  0  0  0  0  0  0
    8.3584    6.2811   -2.6552 N   0  0  0  0  0  0  0  0  0  0  0  0
    2.4294    4.9149   -1.9512 C   0  0  0  0  0  0  0  0  0  0  0  0
   -0.9561    4.2500    2.2931 C   0  0  0  0  0  0  0  0  0  0  0  0
   -1.3543    5.6596    2.4381 C   0  0  0  0  0  0  0  0  0  0  0  0
   -0.3790    6.6628    2.4783 C   0  0  0  0  0  0  0  0  0  0  0  0
   -0.6965    7.9866    2.6406 C   0  0  0  0  0  0  0  0  0  0  0  0
   -2.0278    8.3633    2.7729 C   0  0  0  0  0  0  0  0  0  0  0  0
   -3.0111    7.4143    2.7396 C   0  0  0  0  0  0  0  0  0  0  0  0
   -2.6507    6.0969    2.5745 C   0  0  0  0  0  0  0  0  0  0  0  0
   -4.8530    4.6615   -0.6844 C   0  0  0  0  0  0  0  0  0  0  0  0
   -5.7821    4.8990   -1.5509 O   0  0  0  0  0  0  0  0  0  0  0  0
   -4.4777    5.7765    0.0497 O   0  0  0  0  0  0  0  0  0  0  0  0
    3.6561   -7.4492   -0.5942 H   0  0  0  0  0  0  0  0  0  0  0  0
    2.7293   -7.4673   -2.1360 H   0  0  0  0  0  0  0  0  0  0  0  0
    5.5511   -7.8854   -2.9414 H   0  0  0  0  0  0  0  0  0  0  0  0
    3.5901   -4.5090   -1.8593 H   0  0  0  0  0  0  0  0  0  0  0  0
    5.4636   -3.0278   -2.5033 H   0  0  0  0  0  0  0  0  0  0  0  0
    6.2525   -4.4632   -3.1033 H   0  0  0  0  0  0  0  0  0  0  0  0
    6.9874   -5.2992   -1.1394 H   0  0  0  0  0  0  0  0  0  0  0  0
    7.5816   -3.6487   -1.2501 H   0  0  0  0  0  0  0  0  0  0  0  0
    7.0090   -4.2740    1.0143 H   0  0  0  0  0  0  0  0  0  0  0  0
    5.4225   -4.8873    0.5426 H   0  0  0  0  0  0  0  0  0  0  0  0
    5.1350   -2.9930    1.7897 H   0  0  0  0  0  0  0  0  0  0  0  0
    4.3682   -1.8511   -0.9395 H   0  0  0  0  0  0  0  0  0  0  0  0
    1.7073   -2.7724   -1.1367 H   0  0  0  0  0  0  0  0  0  0  0  0
    2.7816   -0.4175   -0.7099 H   0  0  0  0  0  0  0  0  0  0  0  0
    1.4428   -0.2185    0.4483 H   0  0  0  0  0  0  0  0  0  0  0  0
    1.1181   -0.6213   -1.3246 H   0  0  0  0  0  0  0  0  0  0  0  0
    0.7897   -2.6158    1.6744 H   0  0  0  0  0  0  0  0  0  0  0  0
   -1.6356   -2.5238    1.9425 H   0  0  0  0  0  0  0  0  0  0  0  0
   -2.4517   -4.7192    2.5450 H   0  0  0  0  0  0  0  0  0  0  0  0
   -1.9138   -5.4769    1.0581 H   0  0  0  0  0  0  0  0  0  0  0  0
    0.7432   -5.8420    0.8530 H   0  0  0  0  0  0  0  0  0  0  0  0
    2.6368   -6.2110    2.4850 H   0  0  0  0  0  0  0  0  0  0  0  0
   -0.5763   -4.3767    4.5523 H   0  0  0  0  0  0  0  0  0  0  0  0
   -3.5507   -3.8655    0.1054 H   0  0  0  0  0  0  0  0  0  0  0  0
   -4.6039   -1.2838   -1.3688 H   0  0  0  0  0  0  0  0  0  0  0  0
   -5.8741   -3.1555    0.6148 H   0  0  0  0  0  0  0  0  0  0  0  0
   -7.8436   -4.3111   -0.5733 H   0  0  0  0  0  0  0  0  0  0  0  0
   -5.7096   -5.8619   -2.0434 H   0  0  0  0  0  0  0  0  0  0  0  0
   -5.6458   -5.5906   -0.2127 H   0  0  0  0  0  0  0  0  0  0  0  0
   -7.4048   -6.4887    1.1494 H   0  0  0  0  0  0  0  0  0  0  0  0
   -9.0024   -8.2638    1.5120 H   0  0  0  0  0  0  0  0  0  0  0  0
   -8.9315   -9.1052   -2.7161 H   0  0  0  0  0  0  0  0  0  0  0  0
   -7.3021   -7.2938   -3.0579 H   0  0  0  0  0  0  0  0  0  0  0  0
  -10.6553   -9.8561    0.4085 H   0  0  0  0  0  0  0  0  0  0  0  0
   -8.5040   -5.2810   -2.6302 H   0  0  0  0  0  0  0  0  0  0  0  0
   -7.9930   -3.6855   -3.0651 H   0  0  0  0  0  0  0  0  0  0  0  0
   -5.2216   -0.3403    1.4056 H   0  0  0  0  0  0  0  0  0  0  0  0
   -6.5938   -0.3046    0.3269 H   0  0  0  0  0  0  0  0  0  0  0  0
   -6.8127    3.6521   -0.0642 H   0  0  0  0  0  0  0  0  0  0  0  0
   -9.2275    2.8370    1.6243 H   0  0  0  0  0  0  0  0  0  0  0  0
   -8.9772    1.1974    2.2384 H   0  0  0  0  0  0  0  0  0  0  0  0
   -7.2501    2.6060   -2.0568 H   0  0  0  0  0  0  0  0  0  0  0  0
   -7.2131    0.9660   -1.3800 H   0  0  0  0  0  0  0  0  0  0  0  0
   -9.1724    4.1364   -1.4973 H   0  0  0  0  0  0  0  0  0  0  0  0
  -11.6432    4.1001   -1.2087 H   0  0  0  0  0  0  0  0  0  0  0  0
  -11.4809    0.0316   -0.0486 H   0  0  0  0  0  0  0  0  0  0  0  0
   -9.0899    0.0426   -0.3198 H   0  0  0  0  0  0  0  0  0  0  0  0
  -13.7313    1.8141   -1.2386 H   0  0  0  0  0  0  0  0  0  0  0  0
   -4.4412    2.0715   -2.3897 H   0  0  0  0  0  0  0  0  0  0  0  0
   -3.8348    3.7612   -2.6424 H   0  0  0  0  0  0  0  0  0  0  0  0
   -2.7753    2.5003   -1.9169 H   0  0  0  0  0  0  0  0  0  0  0  0
   -3.1914    2.6253    1.1535 H   0  0  0  0  0  0  0  0  0  0  0  0
   -0.4103    2.6901    1.0152 H   0  0  0  0  0  0  0  0  0  0  0  0
    0.3003    5.4663   -0.0556 H   0  0  0  0  0  0  0  0  0  0  0  0
    2.9254    5.6867   -0.0648 H   0  0  0  0  0  0  0  0  0  0  0  0
    4.1591    2.9235   -0.5240 H   0  0  0  0  0  0  0  0  0  0  0  0
    7.1706    4.3593    0.7543 H   0  0  0  0  0  0  0  0  0  0  0  0
    5.9897    1.9159   -0.6321 H   0  0  0  0  0  0  0  0  0  0  0  0
    7.9805    0.1523    1.8570 H   0  0  0  0  0  0  0  0  0  0  0  0
    6.0256   -0.1947   -0.4308 H   0  0  0  0  0  0  0  0  0  0  0  0
    9.1227   -1.2063    0.1554 H   0  0  0  0  0  0  0  0  0  0  0  0
    9.0902    0.1987   -0.9521 H   0  0  0  0  0  0  0  0  0  0  0  0
   10.5854   -1.0474    2.3664 H   0  0  0  0  0  0  0  0  0  0  0  0
   12.5743    0.4217    3.0784 H   0  0  0  0  0  0  0  0  0  0  0  0
   10.1952    2.4096   -1.2179 H   0  0  0  0  0  0  0  0  0  0  0  0
   11.8213    4.3420   -1.3284 H   0  0  0  0  0  0  0  0  0  0  0  0
   13.5873    4.4719    0.3730 H   0  0  0  0  0  0  0  0  0  0  0  0
   13.7404    2.8215    2.0918 H   0  0  0  0  0  0  0  0  0  0  0  0
    8.3517    3.8280   -1.3697 H   0  0  0  0  0  0  0  0  0  0  0  0
    6.8518    4.0196   -2.2707 H   0  0  0  0  0  0  0  0  0  0  0  0
    9.3975    6.1193   -2.6485 H   0  0  0  0  0  0  0  0  0  0  0  0
    7.8337    6.7176   -3.4327 H   0  0  0  0  0  0  0  0  0  0  0  0
    1.5072    5.5255   -1.9280 H   0  0  0  0  0  0  0  0  0  0  0  0
    3.2225    5.5300   -2.3913 H   0  0  0  0  0  0  0  0  0  0  0  0
    2.3131    3.9539   -2.4746 H   0  0  0  0  0  0  0  0  0  0  0  0
   -1.7152    3.5952    2.7868 H   0  0  0  0  0  0  0  0  0  0  0  0
   -0.0001    4.0941    2.8567 H   0  0  0  0  0  0  0  0  0  0  0  0
    0.6848    6.4058    2.3785 H   0  0  0  0  0  0  0  0  0  0  0  0
    0.0415    8.7848    2.6766 H   0  0  0  0  0  0  0  0  0  0  0  0
   -2.3167    9.4097    2.9021 H   0  0  0  0  0  0  0  0  0  0  0  0
   -4.0735    7.6127    2.8309 H   0  0  0  0  0  0  0  0  0  0  0  0
   -3.4264    5.3300    2.5512 H   0  0  0  0  0  0  0  0  0  0  0  0
   -4.8314    6.7101   -0.1014 H   0  0  0  0  0  0  0  0  0  0  0  0
  1  2  1  0
  2  3  2  3
  2  4  1  0
  4  5  1  0
  5  6  1  0
  6  7  1  0
  7  8  1  0
  8  9  1  0
  9 10  1  0
 10 11  2  0
 10 12  1  0
 12 13  1  0
 12 14  1  0
 14 15  1  0
 15 16  2  0
 15 17  1  0
 17 18  1  0
 18 19  1  0
 19 20  1  0
 20 21  1  0
 21 22  2  0
 22 23  1  0
 17 24  1  0
 24 25  1  0
 25 26  2  0
 25 27  1  0
 27 28  1  0
 28 29  1  0
 29 30  2  0
 29 31  1  0
 31 32  1  0
 32 33  1  0
 33 34  2  0
 34 35  1  0
 35 36  2  0
 36 37  1  0
 37 38  2  0
 36 39  1  0
 31 40  1  0
 27 41  1  0
 41 42  1  0
 42 43  2  0
 42 44  1  0
 44 45  1  0
 45 46  1  0
 46 47  2  0
 46 48  1  0
 45 49  1  0
 49 50  1  0
 50 51  2  0
 51 52  1  0
 52 53  2  0
 53 54  1  0
 54 55  2  0
 53 56  1  0
 44 57  1  0
 57 58  1  0
 57 59  1  0
 59 60  1  0
 60 61  2  0
 60 62  1  0
 62 63  1  0
 63 64  1  0
 64 65  2  0
 64 66  1  0
 66 67  1  0
 67 68  1  0
 68 69  2  0
 68 70  1  0
 70 71  1  0
 71 72  1  0
 72 73  2  0
 72 74  1  0
 74 75  1  0
 75 76  1  0
 76 77  2  0
 74 78  1  0
 78 79  1  0
 79 80  2  0
 80 81  1  0
 81 82  1  0
 82 83  2  0
 83 84  1  0
 84 85  2  0
 85 86  1  0
 86 87  2  0
 70 88  1  0
 88 89  1  0
 89 90  2  0
 89 91  1  0
 66 92  1  0
 62 93  1  0
 93 94  1  0
 94 95  2  0
 95 96  1  0
 96 97  2  0
 97 98  1  0
 98 99  2  0
 57100  1  0
100101  2  0
100102  1  0
 76  8  1  0
 83 79  1  0
 99 94  1  0
 23 19  2  0
 38 33  1  0
 55 50  1  0
 87 82  1  0
  1103  1  0
  1104  1  0
  3105  1  0
  4106  1  0
  5107  1  0
  5108  1  0
  6109  1  0
  6110  1  0
  7111  1  0
  7112  1  0
  8113  1  1
  9114  1  0
 12115  1  6
 13116  1  0
 13117  1  0
 13118  1  0
 14119  1  0
 17120  1  1
 18121  1  0
 18122  1  0
 20123  1  0
 21124  1  0
 23125  1  0
 24126  1  0
 27127  1  6
 28128  1  0
 31129  1  1
 32130  1  0
 32131  1  0
 34132  1  0
 35133  1  0
 37134  1  0
 38135  1  0
 39136  1  0
 40137  1  0
 40138  1  0
 41139  1  0
 41140  1  0
 45141  1  1
 48142  1  0
 48143  1  0
 49144  1  0
 49145  1  0
 51146  1  0
 52147  1  0
 54148  1  0
 55149  1  0
 56150  1  0
 58151  1  0
 58152  1  0
 58153  1  0
 59154  1  0
 62155  1  1
 63156  1  0
 66157  1  1
 67158  1  0
 70159  1  1
 71160  1  0
 74161  1  1
 75162  1  0
 78163  1  0
 78164  1  0
 80165  1  0
 81166  1  0
 84167  1  0
 85168  1  0
 86169  1  0
 87170  1  0
 88171  1  0
 88172  1  0
 91173  1  0
 91174  1  0
 92175  1  0
 92176  1  0
 92177  1  0
 93178  1  0
 93179  1  0
 95180  1  0
 96181  1  0
 97182  1  0
 98183  1  0
 99184  1  0
102185  1  0
M  END
>  <Ligand ID>  (1) 
LIG0002286

>  <Ligand>  (1) 
CHEMBL2096722

>  <SMILES>  (1) 
NC(=N)NCCC[C@@H]1NC(=O)[C@H](C)NC(=O)[C@H](Cc2[nH]cnc2)NC(=O)[C@@H](NC(=O)[C@H](Cc2ccc(cc2)O)N)CC(=O)N([C@H](C(=O)N)Cc2ccc(cc2)O)C(C)(NC(=O)[C@@H](NC(=O)[C@@H](NC(=O)[C@@H](NC(=O)[C@@H](NC1=O)Cc1c[nH]c2c1cccc2)CC(=O)N)C)Cc1ccccc1)C(=O)O

>  <CID>  (1) 
91900715.0

>  <ChEMBL ID>  (1) 
nan

>  <InChiKey>  (1) 
COQOIHHAVMFYQY-OFPYHVTASA-N

>  <InChi>  (1) 
InChI=1S/C67H83N19O16/c1-34-56(92)79-46(14-9-23-74-66(71)72)59(95)82-48(27-39-31-75-45-13-8-7-12-43(39)45)62(98)84-50(29-53(69)89)61(97)78-35(2)57(93)80-47(25-36-10-5-4-6-11-36)64(100)85-67(3,65(101)102)86(52(55(70)91)26-38-17-21-42(88)22-18-38)54(90)30-51(81-58(94)44(68)24-37-15-19-41(87)20-16-37)63(99)83-49(60(96)77-34)28-40-32-73-33-76-40/h4-8,10-13,15-22,31-35,44,46-52,75,87-88H,9,14,23-30,68H2,1-3H3,(H2,69,89)(H2,70,91)(H,73,76)(H,77,96)(H,78,97)(H,79,92)(H,80,93)(H,81,94)(H,82,95)(H,83,99)(H,84,98)(H,85,100)(H,101,102)(H4,71,72,74)/t34-,35-,44-,46-,47-,48-,49-,50-,51-,52-,67?/m0/s1

>  <IUPAC Name>  (1) 
(5S,8S,11S,14S,17S,20S,23S,26S)-1-[(2S)-1-amino-3-(4-hydroxyphenyl)-1-oxopropan-2-yl]-26-[[(2S)-2-amino-3-(4-hydroxyphenyl)propanoyl]amino]-11-(2-amino-2-oxoethyl)-5-benzyl-17-(3-carbamimidamidopropyl)-23-(1H-imidazol-5-ylmethyl)-14-(1H-indol-3-ylmethyl)-2,8,20-trimethyl-4,7,10,13,16,19,22,25,28-nonaoxo-1,3,6,9,12,15,18,21,24-nonazacyclooctacosane-2-carboxylic acid

$$$$
