
     RDKit          3D

 60 62  0  0  0  0  0  0  0  0999 V2000
   -7.5258    2.5755    0.0063 O   0  0  0  0  0  0  0  0  0  0  0  0
   -6.2429    2.3312    0.4518 C   0  0  0  0  0  0  0  0  0  0  0  0
   -5.4483    1.4813   -0.5500 C   0  0  0  0  0  0  0  0  0  0  0  0
   -6.1778    0.1941   -0.7068 C   0  0  0  0  0  0  0  0  0  0  0  0
   -6.2064   -0.5103    0.5140 O   0  0  0  0  0  0  0  0  0  0  0  0
   -7.0168   -1.9750    0.4008 P   0  0  0  0  0  0  0  0  0  0  0  0
   -8.2534   -1.9889    1.2927 O   0  0  0  0  0  0  0  0  0  0  0  0
   -6.0061   -3.2478    0.8807 O   0  0  0  0  0  0  0  0  0  0  0  0
   -7.5181   -2.2958   -1.1909 O   0  0  0  0  0  0  0  0  0  0  0  0
   -4.0790    1.3667    0.0193 C   0  0  0  0  0  0  0  0  0  0  0  0
   -3.0890    0.5819   -0.7617 C   0  0  0  0  0  0  0  0  0  0  0  0
   -1.8058    0.6250    0.0284 C   0  0  0  0  0  0  0  0  0  0  0  0
   -1.5273   -0.3381    0.9772 C   0  0  0  0  0  0  0  0  0  0  0  0
   -0.3489   -0.2879    1.6942 C   0  0  0  0  0  0  0  0  0  0  0  0
    0.5597    0.7046    1.4849 C   0  0  0  0  0  0  0  0  0  0  0  0
    0.3014    1.6908    0.5306 C   0  0  0  0  0  0  0  0  0  0  0  0
   -0.8908    1.6379   -0.1932 C   0  0  0  0  0  0  0  0  0  0  0  0
    1.7335    0.7504    2.2025 O   0  0  0  0  0  0  0  0  0  0  0  0
    2.8469    0.0936    1.6999 C   0  0  0  0  0  0  0  0  0  0  0  0
    4.0020    0.1516    2.4274 C   0  0  0  0  0  0  0  0  0  0  0  0
    5.1870   -0.4481    2.0601 C   0  0  0  0  0  0  0  0  0  0  0  0
    5.1719   -1.1524    0.8623 C   0  0  0  0  0  0  0  0  0  0  0  0
    4.0025   -1.2228    0.1060 C   0  0  0  0  0  0  0  0  0  0  0  0
    2.8391   -0.6081    0.5102 C   0  0  0  0  0  0  0  0  0  0  0  0
    6.3863   -1.8391    0.3641 C   0  0  0  0  0  0  0  0  0  0  0  0
    7.2067   -0.9518   -0.4976 C   0  0  0  0  0  0  0  0  0  0  0  0
    6.9836   -0.9085   -1.8778 C   0  0  0  0  0  0  0  0  0  0  0  0
    7.7748   -0.0669   -2.6292 C   0  0  0  0  0  0  0  0  0  0  0  0
    8.7662    0.7272   -2.0926 C   0  0  0  0  0  0  0  0  0  0  0  0
    8.9879    0.6832   -0.7155 C   0  0  0  0  0  0  0  0  0  0  0  0
    8.1971   -0.1583    0.0367 C   0  0  0  0  0  0  0  0  0  0  0  0
    9.5326    1.5511   -2.8699 F   0  0  0  0  0  0  0  0  0  0  0  0
   -5.4022    2.2291   -1.7909 N   0  0  0  0  0  0  0  0  0  0  0  0
   -7.4946    2.6943   -0.9777 H   0  0  0  0  0  0  0  0  0  0  0  0
   -6.1833    1.8754    1.4536 H   0  0  0  0  0  0  0  0  0  0  0  0
   -5.7288    3.3250    0.5611 H   0  0  0  0  0  0  0  0  0  0  0  0
   -7.2445    0.4224   -0.9335 H   0  0  0  0  0  0  0  0  0  0  0  0
   -5.8219   -0.4538   -1.5178 H   0  0  0  0  0  0  0  0  0  0  0  0
   -6.0554   -3.3067    1.8585 H   0  0  0  0  0  0  0  0  0  0  0  0
   -8.4330   -2.6846   -1.2275 H   0  0  0  0  0  0  0  0  0  0  0  0
   -4.1205    0.9018    1.0453 H   0  0  0  0  0  0  0  0  0  0  0  0
   -3.6764    2.3858    0.1914 H   0  0  0  0  0  0  0  0  0  0  0  0
   -2.9218    0.9080   -1.7880 H   0  0  0  0  0  0  0  0  0  0  0  0
   -3.3813   -0.5083   -0.7699 H   0  0  0  0  0  0  0  0  0  0  0  0
   -2.2203   -1.1501    1.1809 H   0  0  0  0  0  0  0  0  0  0  0  0
   -0.1363   -1.0446    2.4357 H   0  0  0  0  0  0  0  0  0  0  0  0
    0.9992    2.4887    0.3412 H   0  0  0  0  0  0  0  0  0  0  0  0
   -1.1334    2.3784   -0.9409 H   0  0  0  0  0  0  0  0  0  0  0  0
    4.0223    0.7032    3.3701 H   0  0  0  0  0  0  0  0  0  0  0  0
    6.0938   -0.4035    2.6298 H   0  0  0  0  0  0  0  0  0  0  0  0
    3.9879   -1.7717   -0.8292 H   0  0  0  0  0  0  0  0  0  0  0  0
    1.9177   -0.6372   -0.0410 H   0  0  0  0  0  0  0  0  0  0  0  0
    6.0628   -2.7368   -0.1891 H   0  0  0  0  0  0  0  0  0  0  0  0
    6.9856   -2.1090    1.2651 H   0  0  0  0  0  0  0  0  0  0  0  0
    6.1997   -1.5333   -2.3189 H   0  0  0  0  0  0  0  0  0  0  0  0
    7.5746   -0.0570   -3.7033 H   0  0  0  0  0  0  0  0  0  0  0  0
    9.7708    1.3066   -0.2712 H   0  0  0  0  0  0  0  0  0  0  0  0
    8.4059   -0.1609    1.1134 H   0  0  0  0  0  0  0  0  0  0  0  0
   -5.9866    1.7107   -2.4873 H   0  0  0  0  0  0  0  0  0  0  0  0
   -4.4229    2.2439   -2.1248 H   0  0  0  0  0  0  0  0  0  0  0  0
  1  2  1  0
  2  3  1  0
  3  4  1  0
  4  5  1  0
  5  6  1  0
  6  7  2  0
  6  8  1  0
  6  9  1  0
  3 10  1  0
 10 11  1  0
 11 12  1  0
 12 13  2  0
 13 14  1  0
 14 15  2  0
 15 16  1  0
 16 17  2  0
 15 18  1  0
 18 19  1  0
 19 20  2  0
 20 21  1  0
 21 22  2  0
 22 23  1  0
 23 24  2  0
 22 25  1  0
 25 26  1  0
 26 27  2  0
 27 28  1  0
 28 29  2  0
 29 30  1  0
 30 31  2  0
 29 32  1  0
  3 33  1  0
 17 12  1  0
 24 19  1  0
 31 26  1  0
  1 34  1  0
  2 35  1  0
  2 36  1  0
  4 37  1  0
  4 38  1  0
  8 39  1  0
  9 40  1  0
 10 41  1  0
 10 42  1  0
 11 43  1  0
 11 44  1  0
 13 45  1  0
 14 46  1  0
 16 47  1  0
 17 48  1  0
 20 49  1  0
 21 50  1  0
 23 51  1  0
 24 52  1  0
 25 53  1  0
 25 54  1  0
 27 55  1  0
 28 56  1  0
 30 57  1  0
 31 58  1  0
 33 59  1  0
 33 60  1  0
M  END
>  <Ligand ID>  (1) 
LIG0005929

>  <Ligand>  (1) 
CHEMBL3133704

>  <SMILES>  (1) 
OCC(COP(=O)(O)O)(CCc1ccc(cc1)Oc1ccc(cc1)Cc1ccc(cc1)F)N

>  <CID>  (1) 
76325748.0

>  <ChEMBL ID>  (1) 
nan

>  <InChiKey>  (1) 
FIFGRELOBFINTE-UHFFFAOYSA-N

>  <InChi>  (1) 
InChI=1S/C24H27FNO6P/c25-21-7-1-19(2-8-21)15-20-5-11-23(12-6-20)32-22-9-3-18(4-10-22)13-14-24(26,16-27)17-31-33(28,29)30/h1-12,27H,13-17,26H2,(H2,28,29,30)

>  <IUPAC Name>  (1) 
[2-amino-4-[4-[4-[(4-fluorophenyl)methyl]phenoxy]phenyl]-2-(hydroxymethyl)butyl] dihydrogen phosphate

$$$$
