
     RDKit          3D

 54 58  0  0  0  0  0  0  0  0999 V2000
   -9.3238   -1.7250    1.3141 O   0  0  0  0  0  0  0  0  0  0  0  0
   -8.6619   -0.9693    0.3391 C   0  0  0  0  0  0  0  0  0  0  0  0
   -9.3406   -0.1850   -0.3769 O   0  0  0  0  0  0  0  0  0  0  0  0
   -7.2076   -1.1343    0.2055 C   0  0  0  0  0  0  0  0  0  0  0  0
   -6.7157   -0.2126   -0.9153 C   0  0  0  0  0  0  0  0  0  0  0  0
   -6.7258    0.8478    0.0727 N   0  0  0  0  0  0  0  0  0  0  0  0
   -6.4113   -0.1361    1.0591 C   0  0  0  0  0  0  0  0  0  0  0  0
   -5.7653    1.8532   -0.2351 C   0  0  0  0  0  0  0  0  0  0  0  0
   -4.3711    1.4130   -0.3146 C   0  0  0  0  0  0  0  0  0  0  0  0
   -3.6260    1.4263    0.8619 C   0  0  0  0  0  0  0  0  0  0  0  0
   -2.2987    1.0332    0.8940 C   0  0  0  0  0  0  0  0  0  0  0  0
   -1.7194    0.6236   -0.2705 C   0  0  0  0  0  0  0  0  0  0  0  0
   -2.4067    0.5893   -1.4645 C   0  0  0  0  0  0  0  0  0  0  0  0
   -3.7267    0.9910   -1.4440 C   0  0  0  0  0  0  0  0  0  0  0  0
   -1.8125    0.1808   -2.6013 F   0  0  0  0  0  0  0  0  0  0  0  0
   -0.3079    0.1841   -0.3421 C   0  0  0  0  0  0  0  0  0  0  0  0
    0.5229   -0.2200   -1.1040 N   0  0  0  0  0  0  0  0  0  0  0  0
    1.7631   -0.5441   -0.8599 C   0  0  0  0  0  0  0  0  0  0  0  0
    2.1629   -0.4017    0.4411 C   0  0  0  0  0  0  0  0  0  0  0  0
    0.6692    0.2105    1.2459 S   0  0  0  0  0  0  0  0  0  0  0  0
    3.3887   -0.6765    0.9081 N   0  0  0  0  0  0  0  0  0  0  0  0
    4.3654   -1.1386    0.0759 C   0  0  0  0  0  0  0  0  0  0  0  0
    3.9952   -1.2931   -1.2412 C   0  0  0  0  0  0  0  0  0  0  0  0
    2.7470   -1.0186   -1.7426 C   0  0  0  0  0  0  0  0  0  0  0  0
    5.6987   -1.4312    0.6146 C   0  0  1  0  0  0  0  0  0  0  0  0
    6.5829   -0.2530    0.5555 C   0  0  0  0  0  0  0  0  0  0  0  0
    6.6947    0.6805    1.5665 C   0  0  0  0  0  0  0  0  0  0  0  0
    7.5566    1.7706    1.4332 C   0  0  0  0  0  0  0  0  0  0  0  0
    8.3117    1.9407    0.2972 C   0  0  0  0  0  0  0  0  0  0  0  0
    8.2127    1.0259   -0.7124 C   0  0  0  0  0  0  0  0  0  0  0  0
    7.3628   -0.0538   -0.5872 C   0  0  0  0  0  0  0  0  0  0  0  0
    5.6038   -2.0211    2.0014 C   0  0  0  0  0  0  0  0  0  0  0  0
  -10.1979   -1.3630    1.7027 H   0  0  0  0  0  0  0  0  0  0  0  0
   -6.8004   -2.1467    0.1907 H   0  0  0  0  0  0  0  0  0  0  0  0
   -5.6782   -0.5290   -1.1662 H   0  0  0  0  0  0  0  0  0  0  0  0
   -7.4073   -0.0933   -1.7549 H   0  0  0  0  0  0  0  0  0  0  0  0
   -5.3353   -0.3763    1.0752 H   0  0  0  0  0  0  0  0  0  0  0  0
   -6.8893   -0.0856    2.0382 H   0  0  0  0  0  0  0  0  0  0  0  0
   -6.0634    2.2782   -1.2381 H   0  0  0  0  0  0  0  0  0  0  0  0
   -5.8837    2.6884    0.5067 H   0  0  0  0  0  0  0  0  0  0  0  0
   -4.0591    1.7460    1.7993 H   0  0  0  0  0  0  0  0  0  0  0  0
   -1.7569    1.0544    1.8067 H   0  0  0  0  0  0  0  0  0  0  0  0
   -4.2739    0.9705   -2.3762 H   0  0  0  0  0  0  0  0  0  0  0  0
    4.7509   -1.6609   -1.9358 H   0  0  0  0  0  0  0  0  0  0  0  0
    2.5422   -1.1692   -2.7937 H   0  0  0  0  0  0  0  0  0  0  0  0
    6.1393   -2.2241   -0.0368 H   0  0  0  0  0  0  0  0  0  0  0  0
    6.1047    0.5546    2.4633 H   0  0  0  0  0  0  0  0  0  0  0  0
    7.6070    2.4752    2.2573 H   0  0  0  0  0  0  0  0  0  0  0  0
    8.9745    2.7838    0.2010 H   0  0  0  0  0  0  0  0  0  0  0  0
    8.7945    1.1208   -1.6346 H   0  0  0  0  0  0  0  0  0  0  0  0
    7.3110   -0.7575   -1.4075 H   0  0  0  0  0  0  0  0  0  0  0  0
    4.9581   -2.9091    1.9195 H   0  0  0  0  0  0  0  0  0  0  0  0
    6.6298   -2.4099    2.2550 H   0  0  0  0  0  0  0  0  0  0  0  0
    5.3159   -1.3036    2.7683 H   0  0  0  0  0  0  0  0  0  0  0  0
  1  2  1  0
  2  3  2  0
  2  4  1  0
  4  5  1  0
  5  6  1  0
  6  7  1  0
  6  8  1  0
  8  9  1  0
  9 10  2  0
 10 11  1  0
 11 12  2  0
 12 13  1  0
 13 14  2  0
 13 15  1  0
 12 16  1  0
 16 17  2  0
 17 18  1  0
 18 19  2  0
 19 20  1  0
 19 21  1  0
 21 22  2  0
 22 23  1  0
 23 24  2  0
 22 25  1  0
 25 26  1  0
 26 27  2  0
 27 28  1  0
 28 29  2  0
 29 30  1  0
 30 31  2  0
 25 32  1  0
  7  4  1  0
 14  9  1  0
 20 16  1  0
 31 26  1  0
 24 18  1  0
  1 33  1  0
  4 34  1  0
  5 35  1  0
  5 36  1  0
  7 37  1  0
  7 38  1  0
  8 39  1  0
  8 40  1  0
 10 41  1  0
 11 42  1  0
 14 43  1  0
 23 44  1  0
 24 45  1  0
 25 46  1  6
 27 47  1  0
 28 48  1  0
 29 49  1  0
 30 50  1  0
 31 51  1  0
 32 52  1  0
 32 53  1  0
 32 54  1  0
M  END
>  <Ligand ID>  (1) 
LIG0005403

>  <Ligand>  (1) 
CHEMBL1651859

>  <SMILES>  (1) 
OC(=O)C1CN(C1)Cc1ccc(c(c1)F)c1nc2c(s1)nc(cc2)[C@@H](c1ccccc1)C

>  <CID>  (1) 
53323420.0

>  <ChEMBL ID>  (1) 
nan

>  <InChiKey>  (1) 
CXOPPLGMWBBMQK-OAHLLOKOSA-N

>  <InChi>  (1) 
InChI=1S/C25H22FN3O2S/c1-15(17-5-3-2-4-6-17)21-9-10-22-24(27-21)32-23(28-22)19-8-7-16(11-20(19)26)12-29-13-18(14-29)25(30)31/h2-11,15,18H,12-14H2,1H3,(H,30,31)/t15-/m1/s1

>  <IUPAC Name>  (1) 
1-[[3-fluoro-4-[5-[(1R)-1-phenylethyl]-[1,3]thiazolo[5,4-b]pyridin-2-yl]phenyl]methyl]azetidine-3-carboxylic acid

$$$$
