
     RDKit          3D

 48 52  0  0  0  0  0  0  0  0999 V2000
   -4.9951   -2.4198    1.6850 O   0  0  0  0  0  0  0  0  0  0  0  0
   -5.7205   -1.5776    0.8374 C   0  0  0  0  0  0  0  0  0  0  0  0
   -5.0184   -0.2530    0.6425 C   0  0  1  0  0  0  0  0  0  0  0  0
   -4.7731    0.5652    1.8449 C   0  0  0  0  0  0  0  0  0  0  0  0
   -3.6352   -0.0505    1.1378 C   0  0  2  0  0  0  0  0  0  0  0  0
   -2.9140    0.8475    0.1295 C   0  0  2  0  0  0  0  0  0  0  0  0
   -3.5316    0.3745   -1.1480 C   0  0  1  0  0  0  0  0  0  0  0  0
   -5.0119    0.3342   -0.7460 C   0  0  2  0  0  0  0  0  0  0  0  0
   -5.4834    1.6586   -0.6077 O   0  0  0  0  0  0  0  0  0  0  0  0
   -3.3900    1.2822   -2.1970 O   0  0  0  0  0  0  0  0  0  0  0  0
   -1.5090    0.6116    0.2545 N   0  0  0  0  0  0  0  0  0  0  0  0
   -0.8858    0.2998    1.4273 C   0  0  0  0  0  0  0  0  0  0  0  0
    0.4280    0.1415    1.2088 N   0  0  0  0  0  0  0  0  0  0  0  0
    0.6586    0.3484   -0.0953 C   0  0  0  0  0  0  0  0  0  0  0  0
   -0.5463    0.6424   -0.6968 C   0  0  0  0  0  0  0  0  0  0  0  0
   -0.5805    0.8899   -2.0036 N   0  0  0  0  0  0  0  0  0  0  0  0
    0.5279    0.8647   -2.7722 C   0  0  0  0  0  0  0  0  0  0  0  0
    0.4671    1.1952   -4.5042 Cl  0  0  0  0  0  0  0  0  0  0  0  0
    1.7083    0.5776   -2.1871 N   0  0  0  0  0  0  0  0  0  0  0  0
    1.7979    0.3204   -0.8736 C   0  0  0  0  0  0  0  0  0  0  0  0
    3.0761    0.0238   -0.3177 N   0  0  0  0  0  0  0  0  0  0  0  0
    4.2867   -0.0136   -1.1040 C   0  0  0  0  0  0  0  0  0  0  0  0
    5.4970   -0.3435   -0.3128 C   0  0  0  0  0  0  0  0  0  0  0  0
    6.2227    0.6902    0.2640 C   0  0  0  0  0  0  0  0  0  0  0  0
    7.3580    0.4535    1.0123 C   0  0  0  0  0  0  0  0  0  0  0  0
    7.7854   -0.8489    1.1931 C   0  0  0  0  0  0  0  0  0  0  0  0
    7.0766   -1.8684    0.6290 C   0  0  0  0  0  0  0  0  0  0  0  0
    5.9299   -1.6489   -0.1285 C   0  0  0  0  0  0  0  0  0  0  0  0
    7.7000   -3.8589    0.8853 I   0  0  0  0  0  0  0  0  0  0  0  0
   -4.8994   -1.9278    2.5276 H   0  0  0  0  0  0  0  0  0  0  0  0
   -6.6684   -1.3283    1.3847 H   0  0  0  0  0  0  0  0  0  0  0  0
   -5.9980   -2.0560   -0.1083 H   0  0  0  0  0  0  0  0  0  0  0  0
   -4.8046    1.6726    1.8541 H   0  0  0  0  0  0  0  0  0  0  0  0
   -5.0470    0.1266    2.8054 H   0  0  0  0  0  0  0  0  0  0  0  0
   -3.1222   -0.9586    1.4708 H   0  0  0  0  0  0  0  0  0  0  0  0
   -3.2079    1.9075    0.2562 H   0  0  0  0  0  0  0  0  0  0  0  0
   -3.2445   -0.6387   -1.4619 H   0  0  0  0  0  0  0  0  0  0  0  0
   -5.6240   -0.2440   -1.4370 H   0  0  0  0  0  0  0  0  0  0  0  0
   -5.1572    2.2448   -1.3296 H   0  0  0  0  0  0  0  0  0  0  0  0
   -3.0655    2.1742   -1.8757 H   0  0  0  0  0  0  0  0  0  0  0  0
   -1.3575    0.1887    2.4110 H   0  0  0  0  0  0  0  0  0  0  0  0
    3.1580   -0.1771    0.6988 H   0  0  0  0  0  0  0  0  0  0  0  0
    4.1452   -0.7441   -1.9317 H   0  0  0  0  0  0  0  0  0  0  0  0
    4.4557    0.9974   -1.5523 H   0  0  0  0  0  0  0  0  0  0  0  0
    5.9261    1.7375    0.1504 H   0  0  0  0  0  0  0  0  0  0  0  0
    7.9174    1.2590    1.4576 H   0  0  0  0  0  0  0  0  0  0  0  0
    8.6936   -0.9999    1.7949 H   0  0  0  0  0  0  0  0  0  0  0  0
    5.3750   -2.4718   -0.5722 H   0  0  0  0  0  0  0  0  0  0  0  0
  1  2  1  0
  3  2  1  1
  3  4  1  0
  4  5  1  0
  5  6  1  0
  6  7  1  0
  7  8  1  0
  8  9  1  0
  7 10  1  0
  6 11  1  0
 11 12  1  0
 12 13  2  0
 13 14  1  0
 14 15  2  0
 15 16  1  0
 16 17  2  0
 17 18  1  0
 17 19  1  0
 19 20  2  0
 20 21  1  0
 21 22  1  0
 22 23  1  0
 23 24  2  0
 24 25  1  0
 25 26  2  0
 26 27  1  0
 27 28  2  0
 27 29  1  0
  8  3  1  0
 15 11  1  0
 28 23  1  0
  5  3  1  0
 20 14  1  0
  1 30  1  0
  2 31  1  0
  2 32  1  0
  4 33  1  0
  4 34  1  0
  5 35  1  1
  6 36  1  1
  7 37  1  6
  8 38  1  6
  9 39  1  0
 10 40  1  0
 12 41  1  0
 21 42  1  0
 22 43  1  0
 22 44  1  0
 24 45  1  0
 25 46  1  0
 26 47  1  0
 28 48  1  0
M  END
>  <Ligand ID>  (1) 
LIG0002436

>  <Ligand>  (1) 
CHEMBL27809

>  <SMILES>  (1) 
OC[C@]12C[C@@H]2[C@H]([C@@H]([C@@H]1O)O)n1cnc2c1nc(Cl)nc2NCc1cccc(c1)I

>  <CID>  (1) 
9893136.0

>  <ChEMBL ID>  (1) 
nan

>  <InChiKey>  (1) 
ISZYFLVJJCPYGN-NFPQMFLLSA-N

>  <InChi>  (1) 
InChI=1S/C19H19ClIN5O3/c20-18-24-16(22-6-9-2-1-3-10(21)4-9)12-17(25-18)26(8-23-12)13-11-5-19(11,7-27)15(29)14(13)28/h1-4,8,11,13-15,27-29H,5-7H2,(H,22,24,25)/t11-,13-,14+,15+,19+/m1/s1

>  <IUPAC Name>  (1) 
(1R,2R,3S,4R,5S)-4-[2-chloro-6-[(3-iodophenyl)methylamino]purin-9-yl]-1-(hydroxymethyl)bicyclo[3.1.0]hexane-2,3-diol

$$$$
