
     RDKit          3D

 39 39  0  0  0  0  0  0  0  0999 V2000
    3.9930   -0.2449    1.5800 C   0  0  0  0  0  0  0  0  0  0  0  0
    2.7643   -0.7099    0.8258 C   0  0  0  0  0  0  0  0  0  0  0  0
    2.5456    0.2751   -0.2608 C   0  0  0  0  0  0  0  0  0  0  0  0
    1.4621    1.0109   -0.4137 C   0  0  0  0  0  0  0  0  0  0  0  0
    0.2752    0.9771    0.4789 C   0  0  0  0  0  0  0  0  0  0  0  0
   -0.8707    0.5692   -0.3947 C   0  0  0  0  0  0  0  0  0  0  0  0
   -0.7079   -0.7698   -1.0465 C   0  0  0  0  0  0  0  0  0  0  0  0
   -2.0993   -0.9722   -1.5885 C   0  0  0  0  0  0  0  0  0  0  0  0
   -2.9422   -0.3019   -0.8061 C   0  0  0  0  0  0  0  0  0  0  0  0
   -2.1781    0.3827    0.2948 C   0  0  0  0  0  0  0  0  0  0  0  0
   -2.1281   -0.5751    1.4534 C   0  0  0  0  0  0  0  0  0  0  0  0
   -2.8261    1.6528    0.7545 C   0  0  0  0  0  0  0  0  0  0  0  0
   -4.4148   -0.2189   -0.9635 C   0  0  0  0  0  0  0  0  0  0  0  0
    3.6375    0.4459   -1.2593 C   0  0  0  0  0  0  0  0  0  0  0  0
    4.8354    0.8578   -0.7201 O   0  0  0  0  0  0  0  0  0  0  0  0
    4.0634    0.8608    1.5816 H   0  0  0  0  0  0  0  0  0  0  0  0
    3.9969   -0.6866    2.6056 H   0  0  0  0  0  0  0  0  0  0  0  0
    4.8942   -0.6393    1.0712 H   0  0  0  0  0  0  0  0  0  0  0  0
    1.9123   -0.9035    1.4703 H   0  0  0  0  0  0  0  0  0  0  0  0
    3.0472   -1.7016    0.3598 H   0  0  0  0  0  0  0  0  0  0  0  0
    1.3967    1.7175   -1.2591 H   0  0  0  0  0  0  0  0  0  0  0  0
    0.3934    0.4214    1.4016 H   0  0  0  0  0  0  0  0  0  0  0  0
    0.0827    2.0666    0.7217 H   0  0  0  0  0  0  0  0  0  0  0  0
   -1.0138    1.3330   -1.1746 H   0  0  0  0  0  0  0  0  0  0  0  0
    0.0566   -0.7456   -1.8456 H   0  0  0  0  0  0  0  0  0  0  0  0
   -0.4319   -1.5689   -0.3413 H   0  0  0  0  0  0  0  0  0  0  0  0
   -2.4212   -1.5388   -2.4421 H   0  0  0  0  0  0  0  0  0  0  0  0
   -2.2083   -0.0712    2.4419 H   0  0  0  0  0  0  0  0  0  0  0  0
   -1.2187   -1.1920    1.5039 H   0  0  0  0  0  0  0  0  0  0  0  0
   -3.0331   -1.2387    1.4122 H   0  0  0  0  0  0  0  0  0  0  0  0
   -2.4645    2.5638    0.2098 H   0  0  0  0  0  0  0  0  0  0  0  0
   -2.5078    1.8322    1.8099 H   0  0  0  0  0  0  0  0  0  0  0  0
   -3.9211    1.5608    0.7789 H   0  0  0  0  0  0  0  0  0  0  0  0
   -4.9110   -0.0700    0.0068 H   0  0  0  0  0  0  0  0  0  0  0  0
   -4.7270    0.6406   -1.5971 H   0  0  0  0  0  0  0  0  0  0  0  0
   -4.7837   -1.1393   -1.4401 H   0  0  0  0  0  0  0  0  0  0  0  0
    3.8074   -0.5859   -1.6850 H   0  0  0  0  0  0  0  0  0  0  0  0
    3.3258    1.0708   -2.1231 H   0  0  0  0  0  0  0  0  0  0  0  0
    5.3197    1.4115   -1.4011 H   0  0  0  0  0  0  0  0  0  0  0  0
  1  2  1  0
  2  3  1  0
  3  4  2  0
  4  5  1  0
  5  6  1  0
  6  7  1  0
  7  8  1  0
  8  9  2  0
  9 10  1  0
 10 11  1  0
 10 12  1  0
  9 13  1  0
  3 14  1  0
 14 15  1  0
 10  6  1  0
  1 16  1  0
  1 17  1  0
  1 18  1  0
  2 19  1  0
  2 20  1  0
  4 21  1  0
  5 22  1  0
  5 23  1  0
  6 24  1  0
  7 25  1  0
  7 26  1  0
  8 27  1  0
 11 28  1  0
 11 29  1  0
 11 30  1  0
 12 31  1  0
 12 32  1  0
 12 33  1  0
 13 34  1  0
 13 35  1  0
 13 36  1  0
 14 37  1  0
 14 38  1  0
 15 39  1  0
M  END
>  <Ligand ID>  (1) 
LIG0004999

>  <Ligand>  (1) 
(E)-2-ethyl-4-(2,2,3-trimethylcyclopent-3-en-1-yl)but-2-en-1-ol

>  <SMILES>  (1) 
CC/C(=C\CC1CC=C(C1(C)C)C)/CO

>  <CID>  (1) 
6438196.0

>  <ChEMBL ID>  (1) 
nan

>  <InChiKey>  (1) 
KHQDWCKZXLWDNM-KPKJPENVSA-N

>  <InChi>  (1) 
InChI=1S/C14H24O/c1-5-12(10-15)7-9-13-8-6-11(2)14(13,3)4/h6-7,13,15H,5,8-10H2,1-4H3/b12-7+

>  <IUPAC Name>  (1) 
(E)-2-ethyl-4-(2,2,3-trimethylcyclopent-3-en-1-yl)but-2-en-1-ol

$$$$
