
     RDKit          3D

132134  0  0  0  0  0  0  0  0999 V2000
   10.6519   -3.2101    2.0940 C   0  0  0  0  0  0  0  0  0  0  0  0
   11.2359   -2.2631    0.6683 S   0  0  0  0  0  0  0  0  0  0  0  0
    9.8879   -2.0815   -0.5640 C   0  0  0  0  0  0  0  0  0  0  0  0
    8.7918   -1.2076   -0.0421 C   0  0  0  0  0  0  0  0  0  0  0  0
    7.7476   -1.0036   -1.0988 C   0  0  1  0  0  0  0  0  0  0  0  0
    7.1549   -2.2854   -1.5080 C   0  0  0  0  0  0  0  0  0  0  0  0
    7.8418   -3.1892   -2.1041 O   0  0  0  0  0  0  0  0  0  0  0  0
    5.7851   -2.6617   -1.3012 N   0  0  0  0  0  0  0  0  0  0  0  0
    6.6336   -0.1733   -0.5827 N   0  0  0  0  0  0  0  0  0  0  0  0
    6.4782    1.0730   -1.2097 C   0  0  0  0  0  0  0  0  0  0  0  0
    7.2457    1.4869   -2.1523 O   0  0  0  0  0  0  0  0  0  0  0  0
    5.3901    2.0632   -0.8564 C   0  0  1  0  0  0  0  0  0  0  0  0
    4.4975    1.5819    0.1627 N   0  0  0  0  0  0  0  0  0  0  0  0
    3.5137    0.5525   -0.0836 C   0  0  0  0  0  0  0  0  0  0  0  0
    3.3631   -0.0336   -1.1518 O   0  0  0  0  0  0  0  0  0  0  0  0
    2.6746    0.2798    1.1504 C   0  0  0  0  0  0  0  0  0  0  0  0
    1.7591   -0.7527    0.9567 N   0  0  0  0  0  0  0  0  0  0  0  0
    2.0724   -2.0737    1.5477 C   0  0  0  0  0  0  0  0  0  0  0  0
    1.6761   -2.1037    2.9699 C   0  0  0  0  0  0  0  0  0  0  0  0
    0.2390   -1.9693    3.3022 C   0  0  0  0  0  0  0  0  0  0  0  0
   -0.6408   -2.9546    2.7218 N   0  0  0  0  0  0  0  0  0  0  0  0
   -2.0058   -2.9361    3.0746 C   0  0  0  0  0  0  0  0  0  0  0  0
   -2.2698   -2.0198    3.9299 O   0  0  0  0  0  0  0  0  0  0  0  0
   -3.0736   -3.8038    2.5822 C   0  0  0  0  0  0  0  0  0  0  0  0
   -4.3949   -3.7103    3.2603 C   0  0  0  0  0  0  0  0  0  0  0  0
   -4.9235   -2.3084    3.1779 C   0  0  0  0  0  0  0  0  0  0  0  0
   -5.0996   -1.9306    1.7521 C   0  0  0  0  0  0  0  0  0  0  0  0
   -5.2891   -2.7111    0.8181 O   0  0  0  0  0  0  0  0  0  0  0  0
   -5.0443   -0.5309    1.3411 N   0  0  0  0  0  0  0  0  0  0  0  0
   -5.2618   -0.1877   -0.0504 C   0  0  2  0  0  0  0  0  0  0  0  0
   -4.0458   -0.7557   -0.7324 C   0  0  0  0  0  0  0  0  0  0  0  0
   -3.2152   -1.4087   -0.0698 O   0  0  0  0  0  0  0  0  0  0  0  0
   -3.7392   -0.6229   -2.1095 N   0  0  0  0  0  0  0  0  0  0  0  0
   -2.5045   -1.2445   -2.6561 C   0  0  1  0  0  0  0  0  0  0  0  0
   -1.3195   -0.6540   -2.0027 C   0  0  0  0  0  0  0  0  0  0  0  0
   -0.1939   -1.1087   -2.3819 O   0  0  0  0  0  0  0  0  0  0  0  0
   -1.2473    0.3399   -1.0172 N   0  0  0  0  0  0  0  0  0  0  0  0
    0.1196    0.7185   -0.4597 C   0  0  2  0  0  0  0  0  0  0  0  0
    0.5564   -0.5203    0.2540 C   0  0  0  0  0  0  0  0  0  0  0  0
   -0.1825   -1.4750    0.2541 O   0  0  0  0  0  0  0  0  0  0  0  0
    0.0286    1.9794    0.2089 C   0  0  0  0  0  0  0  0  0  0  0  0
   -0.5030    3.0013   -0.7939 C   0  0  0  0  0  0  0  0  0  0  0  0
   -1.8297    3.3574   -0.7779 C   0  0  0  0  0  0  0  0  0  0  0  0
   -2.4070    4.2524   -1.6496 C   0  0  0  0  0  0  0  0  0  0  0  0
   -1.5597    4.8316   -2.6206 C   0  0  0  0  0  0  0  0  0  0  0  0
   -0.2350    4.4582   -2.6202 C   0  0  0  0  0  0  0  0  0  0  0  0
    0.3262    3.5619   -1.7387 C   0  0  0  0  0  0  0  0  0  0  0  0
   -2.5426   -2.7142   -2.5632 C   0  0  0  0  0  0  0  0  0  0  0  0
   -3.6451   -3.3129   -3.3264 C   0  0  0  0  0  0  0  0  0  0  0  0
   -4.9401   -3.4553   -2.8298 C   0  0  0  0  0  0  0  0  0  0  0  0
   -5.9407   -4.0866   -3.5322 C   0  0  0  0  0  0  0  0  0  0  0  0
   -5.7277   -4.6347   -4.8086 C   0  0  0  0  0  0  0  0  0  0  0  0
   -4.4421   -4.4873   -5.2948 C   0  0  0  0  0  0  0  0  0  0  0  0
   -3.4476   -3.8632   -4.5976 C   0  0  0  0  0  0  0  0  0  0  0  0
   -5.5293    1.2207   -0.3090 C   0  0  0  0  0  0  0  0  0  0  0  0
   -6.7305    1.8673    0.2396 C   0  0  0  0  0  0  0  0  0  0  0  0
   -6.8894    1.8472    1.7619 C   0  0  0  0  0  0  0  0  0  0  0  0
   -7.9730    2.4799    2.2409 N   0  0  0  0  0  0  0  0  0  0  0  0
   -8.9183    3.1143    2.5497 C   0  0  0  0  0  0  0  0  0  0  0  0
   -9.4031    4.1932    1.7041 N   0  0  0  0  0  0  0  0  0  0  0  0
   -9.7058    2.9510    3.7577 N   0  0  0  0  0  0  0  0  0  0  0  0
    6.0347    3.3348   -0.4647 C   0  0  0  0  0  0  0  0  0  0  0  0
    5.1275    4.4619   -0.0868 C   0  0  0  0  0  0  0  0  0  0  0  0
    6.0341    5.6538    0.2855 C   0  0  0  0  0  0  0  0  0  0  0  0
    4.2918    4.9511   -1.2479 C   0  0  0  0  0  0  0  0  0  0  0  0
   10.8559   -4.2967    1.9381 H   0  0  0  0  0  0  0  0  0  0  0  0
   11.1937   -2.8950    3.0042 H   0  0  0  0  0  0  0  0  0  0  0  0
    9.5537   -3.0897    2.2011 H   0  0  0  0  0  0  0  0  0  0  0  0
   10.3064   -1.6871   -1.4857 H   0  0  0  0  0  0  0  0  0  0  0  0
    9.5155   -3.1215   -0.7599 H   0  0  0  0  0  0  0  0  0  0  0  0
    8.3813   -1.6732    0.8944 H   0  0  0  0  0  0  0  0  0  0  0  0
    9.2109   -0.2169    0.2718 H   0  0  0  0  0  0  0  0  0  0  0  0
    8.2261   -0.4717   -1.9617 H   0  0  0  0  0  0  0  0  0  0  0  0
    5.5740   -3.5386   -0.7574 H   0  0  0  0  0  0  0  0  0  0  0  0
    4.9816   -2.1338   -1.6468 H   0  0  0  0  0  0  0  0  0  0  0  0
    6.0158   -0.4914    0.1876 H   0  0  0  0  0  0  0  0  0  0  0  0
    4.7674    2.1509   -1.7976 H   0  0  0  0  0  0  0  0  0  0  0  0
    4.4912    1.9466    1.1505 H   0  0  0  0  0  0  0  0  0  0  0  0
    2.3021    1.1979    1.6147 H   0  0  0  0  0  0  0  0  0  0  0  0
    3.4817   -0.0431    1.8908 H   0  0  0  0  0  0  0  0  0  0  0  0
    1.5333   -2.8823    1.0083 H   0  0  0  0  0  0  0  0  0  0  0  0
    3.1639   -2.3141    1.4055 H   0  0  0  0  0  0  0  0  0  0  0  0
    2.0460   -3.0182    3.5111 H   0  0  0  0  0  0  0  0  0  0  0  0
    2.1761   -1.2111    3.5128 H   0  0  0  0  0  0  0  0  0  0  0  0
   -0.0699   -0.9243    2.9659 H   0  0  0  0  0  0  0  0  0  0  0  0
    0.1046   -1.9100    4.4126 H   0  0  0  0  0  0  0  0  0  0  0  0
   -0.3241   -3.6486    2.0553 H   0  0  0  0  0  0  0  0  0  0  0  0
   -2.6903   -4.8656    2.6398 H   0  0  0  0  0  0  0  0  0  0  0  0
   -3.2693   -3.5972    1.4852 H   0  0  0  0  0  0  0  0  0  0  0  0
   -4.2493   -3.9527    4.3560 H   0  0  0  0  0  0  0  0  0  0  0  0
   -5.1266   -4.4323    2.8256 H   0  0  0  0  0  0  0  0  0  0  0  0
   -5.9758   -2.3667    3.6040 H   0  0  0  0  0  0  0  0  0  0  0  0
   -4.3746   -1.5407    3.7204 H   0  0  0  0  0  0  0  0  0  0  0  0
   -4.8348    0.1081    2.1045 H   0  0  0  0  0  0  0  0  0  0  0  0
   -6.0824   -0.9034   -0.3844 H   0  0  0  0  0  0  0  0  0  0  0  0
   -4.4019   -0.0947   -2.6768 H   0  0  0  0  0  0  0  0  0  0  0  0
   -2.4714   -0.9393   -3.7178 H   0  0  0  0  0  0  0  0  0  0  0  0
   -2.0783    0.7992   -0.7084 H   0  0  0  0  0  0  0  0  0  0  0  0
    0.7356    0.6960   -1.3738 H   0  0  0  0  0  0  0  0  0  0  0  0
    0.9923    2.4386    0.4715 H   0  0  0  0  0  0  0  0  0  0  0  0
   -0.6931    2.0211    1.0567 H   0  0  0  0  0  0  0  0  0  0  0  0
   -2.5378    2.9550   -0.0257 H   0  0  0  0  0  0  0  0  0  0  0  0
   -3.4578    4.5186   -1.5987 H   0  0  0  0  0  0  0  0  0  0  0  0
   -1.9495    5.5522   -3.3373 H   0  0  0  0  0  0  0  0  0  0  0  0
    0.4087    4.9195   -3.3827 H   0  0  0  0  0  0  0  0  0  0  0  0
    1.3708    3.2852   -1.7606 H   0  0  0  0  0  0  0  0  0  0  0  0
   -1.5890   -3.0891   -3.0068 H   0  0  0  0  0  0  0  0  0  0  0  0
   -2.5805   -3.0869   -1.5068 H   0  0  0  0  0  0  0  0  0  0  0  0
   -5.1883   -3.0625   -1.8688 H   0  0  0  0  0  0  0  0  0  0  0  0
   -6.9561   -4.2000   -3.1539 H   0  0  0  0  0  0  0  0  0  0  0  0
   -6.5268   -5.1198   -5.3066 H   0  0  0  0  0  0  0  0  0  0  0  0
   -4.2786   -4.9104   -6.2919 H   0  0  0  0  0  0  0  0  0  0  0  0
   -2.4501   -3.8144   -5.0684 H   0  0  0  0  0  0  0  0  0  0  0  0
   -4.6430    1.8572    0.0341 H   0  0  0  0  0  0  0  0  0  0  0  0
   -5.5259    1.3965   -1.4353 H   0  0  0  0  0  0  0  0  0  0  0  0
   -6.8041    2.9638   -0.0201 H   0  0  0  0  0  0  0  0  0  0  0  0
   -7.6311    1.4018   -0.2460 H   0  0  0  0  0  0  0  0  0  0  0  0
   -5.9351    2.2253    2.2114 H   0  0  0  0  0  0  0  0  0  0  0  0
   -7.0035    0.7164    1.9745 H   0  0  0  0  0  0  0  0  0  0  0  0
  -10.3690    4.1590    1.2942 H   0  0  0  0  0  0  0  0  0  0  0  0
   -8.7416    4.9781    1.5478 H   0  0  0  0  0  0  0  0  0  0  0  0
   -9.6817    3.7146    4.4614 H   0  0  0  0  0  0  0  0  0  0  0  0
  -10.2533    2.0723    3.8288 H   0  0  0  0  0  0  0  0  0  0  0  0
    6.6940    3.1641    0.4351 H   0  0  0  0  0  0  0  0  0  0  0  0
    6.7260    3.7300   -1.2613 H   0  0  0  0  0  0  0  0  0  0  0  0
    4.5079    4.2640    0.7923 H   0  0  0  0  0  0  0  0  0  0  0  0
    6.7659    5.7417   -0.5445 H   0  0  0  0  0  0  0  0  0  0  0  0
    6.5987    5.4596    1.2041 H   0  0  0  0  0  0  0  0  0  0  0  0
    5.4336    6.5748    0.3105 H   0  0  0  0  0  0  0  0  0  0  0  0
    3.8444    4.1421   -1.8449 H   0  0  0  0  0  0  0  0  0  0  0  0
    3.5023    5.6235   -0.8626 H   0  0  0  0  0  0  0  0  0  0  0  0
    4.9447    5.6019   -1.8874 H   0  0  0  0  0  0  0  0  0  0  0  0
  1  2  1  0
  2  3  1  0
  3  4  1  0
  4  5  1  0
  5  6  1  0
  6  7  2  0
  6  8  1  0
  5  9  1  0
  9 10  1  0
 10 11  2  0
 10 12  1  0
 12 13  1  0
 13 14  1  0
 14 15  2  0
 14 16  1  0
 16 17  1  0
 17 18  1  0
 18 19  1  0
 19 20  1  0
 20 21  1  0
 21 22  1  0
 22 23  2  0
 22 24  1  0
 24 25  1  0
 25 26  1  0
 26 27  1  0
 27 28  2  0
 27 29  1  0
 29 30  1  0
 30 31  1  0
 31 32  2  0
 31 33  1  0
 33 34  1  0
 34 35  1  0
 35 36  2  0
 35 37  1  0
 37 38  1  0
 38 39  1  0
 39 40  2  0
 38 41  1  0
 41 42  1  0
 42 43  2  0
 43 44  1  0
 44 45  2  0
 45 46  1  0
 46 47  2  0
 34 48  1  0
 48 49  1  0
 49 50  2  0
 50 51  1  0
 51 52  2  0
 52 53  1  0
 53 54  2  0
 30 55  1  0
 55 56  1  0
 56 57  1  0
 57 58  1  0
 58 59  2  3
 59 60  1  0
 59 61  1  0
 12 62  1  0
 62 63  1  0
 63 64  1  0
 63 65  1  0
 39 17  1  0
 47 42  1  0
 54 49  1  0
  1 66  1  0
  1 67  1  0
  1 68  1  0
  3 69  1  0
  3 70  1  0
  4 71  1  0
  4 72  1  0
  5 73  1  6
  8 74  1  0
  8 75  1  0
  9 76  1  0
 12 77  1  6
 13 78  1  0
 16 79  1  0
 16 80  1  0
 18 81  1  0
 18 82  1  0
 19 83  1  0
 19 84  1  0
 20 85  1  0
 20 86  1  0
 21 87  1  0
 24 88  1  0
 24 89  1  0
 25 90  1  0
 25 91  1  0
 26 92  1  0
 26 93  1  0
 29 94  1  0
 30 95  1  6
 33 96  1  0
 34 97  1  6
 37 98  1  0
 38 99  1  6
 41100  1  0
 41101  1  0
 43102  1  0
 44103  1  0
 45104  1  0
 46105  1  0
 47106  1  0
 48107  1  0
 48108  1  0
 50109  1  0
 51110  1  0
 52111  1  0
 53112  1  0
 54113  1  0
 55114  1  0
 55115  1  0
 56116  1  0
 56117  1  0
 57118  1  0
 57119  1  0
 60120  1  0
 60121  1  0
 61122  1  0
 61123  1  0
 62124  1  0
 62125  1  0
 63126  1  0
 64127  1  0
 64128  1  0
 64129  1  0
 65130  1  0
 65131  1  0
 65132  1  0
M  END
>  <Ligand ID>  (1) 
LIG0003437

>  <Ligand>  (1) 
CHEMBL264395

>  <SMILES>  (1) 
CSCC[C@@H](C(=O)N)NC(=O)[C@@H](NC(=O)CN1CCCNC(=O)CCCC(=O)N[C@H](C(=O)N[C@@H](C(=O)N[C@H](C1=O)Cc1ccccc1)Cc1ccccc1)CCCN=C(N)N)CC(C)C

>  <CID>  (1) 
44337561.0

>  <ChEMBL ID>  (1) 
nan

>  <InChiKey>  (1) 
NCFCVGUQIMTNNB-XLIVJYPCSA-N

>  <InChi>  (1) 
InChI=1S/C45H67N11O8S/c1-29(2)25-34(42(62)53-32(40(46)60)20-24-65-3)52-39(59)28-56-23-12-22-49-37(57)18-10-19-38(58)51-33(17-11-21-50-45(47)48)41(61)54-35(26-30-13-6-4-7-14-30)43(63)55-36(44(56)64)27-31-15-8-5-9-16-31/h4-9,13-16,29,32-36H,10-12,17-28H2,1-3H3,(H2,46,60)(H,49,57)(H,51,58)(H,52,59)(H,53,62)(H,54,61)(H,55,63)(H4,47,48,50)/t32-,33-,34-,35+,36-/m0/s1

>  <IUPAC Name>  (1) 
(2S)-N-[(2S)-1-amino-4-methylsulfanyl-1-oxobutan-2-yl]-2-[[2-[(2S,5R,8S)-5,8-dibenzyl-2-[3-(diaminomethylideneamino)propyl]-3,6,9,15,19-pentaoxo-1,4,7,10,14-pentazacyclononadec-10-yl]acetyl]amino]-4-methylpentanamide

$$$$
