
     RDKit          3D

 51 54  0  0  0  0  0  0  0  0999 V2000
   -0.0342   -1.8267    2.6154 O   0  0  0  0  0  0  0  0  0  0  0  0
   -0.5463   -1.0980    1.5304 C   0  0  2  0  0  0  0  0  0  0  0  0
    0.1739   -1.4399    0.2535 C   0  0  0  0  0  0  0  0  0  0  0  0
    0.8999   -0.2045   -0.1380 C   0  0  1  0  0  0  0  0  0  0  0  0
    1.0296    0.5872    1.1418 C   0  0  1  0  0  0  0  0  0  0  0  0
   -0.3745    0.3763    1.7255 C   0  0  1  0  0  0  0  0  0  0  0  0
   -1.3021    1.2312    0.9822 C   0  0  0  0  0  0  0  0  0  0  0  0
   -2.2623    0.8227    0.1643 C   0  0  0  0  0  0  0  0  0  0  0  0
   -3.1096    1.8523   -0.5051 C   0  0  0  0  0  0  0  0  0  0  0  0
   -4.4592    1.7826   -0.2314 O   0  0  0  0  0  0  0  0  0  0  0  0
   -5.3800    0.8180   -0.4543 C   0  0  0  0  0  0  0  0  0  0  0  0
   -5.1767   -0.4010   -1.0554 C   0  0  0  0  0  0  0  0  0  0  0  0
   -6.1683   -1.3381   -1.2478 C   0  0  0  0  0  0  0  0  0  0  0  0
   -7.4543   -1.0693   -0.8239 C   0  0  0  0  0  0  0  0  0  0  0  0
   -7.6868    0.1327   -0.2240 C   0  0  0  0  0  0  0  0  0  0  0  0
   -6.6931    1.0691   -0.0323 C   0  0  0  0  0  0  0  0  0  0  0  0
    2.1181    0.0878    2.0171 C   0  0  0  0  0  0  0  0  0  0  0  0
    2.9885   -0.9556    1.4269 C   0  0  0  0  0  0  0  0  0  0  0  0
    3.1023   -0.9678   -0.0643 C   0  0  1  0  0  0  0  0  0  0  0  0
    2.0997   -0.3589   -0.7618 O   0  0  0  0  0  0  0  0  0  0  0  0
    4.4205   -0.2961   -0.4848 C   0  0  0  0  0  0  0  0  0  0  0  0
    4.3501    1.6289   -0.5687 S   0  0  0  0  0  0  0  0  0  0  0  0
    6.1182    1.6157   -1.0810 C   0  0  0  0  0  0  0  0  0  0  0  0
    6.4935    0.2947   -1.1184 C   0  0  0  0  0  0  0  0  0  0  0  0
    5.4848   -0.4846   -0.7835 N   0  0  0  0  0  0  0  0  0  0  0  0
    7.8373   -0.1337   -1.4851 C   0  0  0  0  0  0  0  0  0  0  0  0
    8.1808   -1.3556   -1.5187 O   0  0  0  0  0  0  0  0  0  0  0  0
    8.8134    0.7821   -1.8180 O   0  0  0  0  0  0  0  0  0  0  0  0
   -0.6614   -1.7311    3.3591 H   0  0  0  0  0  0  0  0  0  0  0  0
   -1.6273   -1.3383    1.5140 H   0  0  0  0  0  0  0  0  0  0  0  0
   -0.5798   -1.7012   -0.5123 H   0  0  0  0  0  0  0  0  0  0  0  0
    0.8233   -2.3320    0.3569 H   0  0  0  0  0  0  0  0  0  0  0  0
    0.2611    0.4179   -0.8107 H   0  0  0  0  0  0  0  0  0  0  0  0
    1.0969    1.6760    0.9561 H   0  0  0  0  0  0  0  0  0  0  0  0
   -0.3506    0.5801    2.8147 H   0  0  0  0  0  0  0  0  0  0  0  0
   -1.1840    2.3222    1.1219 H   0  0  0  0  0  0  0  0  0  0  0  0
   -2.3821   -0.2257    0.0231 H   0  0  0  0  0  0  0  0  0  0  0  0
   -2.7478    2.8723   -0.2528 H   0  0  0  0  0  0  0  0  0  0  0  0
   -2.9742    1.6565   -1.6126 H   0  0  0  0  0  0  0  0  0  0  0  0
   -4.1926   -0.6569   -1.4104 H   0  0  0  0  0  0  0  0  0  0  0  0
   -5.9526   -2.2979   -1.7338 H   0  0  0  0  0  0  0  0  0  0  0  0
   -8.2813   -1.7554   -0.9410 H   0  0  0  0  0  0  0  0  0  0  0  0
   -8.7039    0.3625    0.1188 H   0  0  0  0  0  0  0  0  0  0  0  0
   -6.9327    2.0188    0.4547 H   0  0  0  0  0  0  0  0  0  0  0  0
    1.6916   -0.2947    2.9866 H   0  0  0  0  0  0  0  0  0  0  0  0
    2.7401    0.9696    2.3480 H   0  0  0  0  0  0  0  0  0  0  0  0
    4.0315   -0.8053    1.8334 H   0  0  0  0  0  0  0  0  0  0  0  0
    2.7386   -1.9930    1.7617 H   0  0  0  0  0  0  0  0  0  0  0  0
    3.2299   -1.9954   -0.4373 H   0  0  0  0  0  0  0  0  0  0  0  0
    6.6910    2.5881   -1.2999 H   0  0  0  0  0  0  0  0  0  0  0  0
    9.8031    0.5114   -1.7112 H   0  0  0  0  0  0  0  0  0  0  0  0
  1  2  1  0
  2  3  1  0
  3  4  1  0
  4  5  1  0
  5  6  1  0
  6  7  1  0
  7  8  2  0
  8  9  1  0
  9 10  1  0
 10 11  1  0
 11 12  2  0
 12 13  1  0
 13 14  2  0
 14 15  1  0
 15 16  2  0
  5 17  1  0
 17 18  1  0
 18 19  1  0
 19 20  1  0
 19 21  1  0
 21 22  1  0
 22 23  1  0
 23 24  2  0
 24 25  1  0
 24 26  1  0
 26 27  2  0
 26 28  1  0
  6  2  1  0
 16 11  1  0
 25 21  2  0
 20  4  1  0
  1 29  1  0
  2 30  1  6
  3 31  1  0
  3 32  1  0
  4 33  1  6
  5 34  1  6
  6 35  1  1
  7 36  1  0
  8 37  1  0
  9 38  1  0
  9 39  1  0
 12 40  1  0
 13 41  1  0
 14 42  1  0
 15 43  1  0
 16 44  1  0
 17 45  1  0
 17 46  1  0
 18 47  1  0
 18 48  1  0
 19 49  1  6
 23 50  1  0
 28 51  1  0
M  END
>  <Ligand ID>  (1) 
LIG0000836

>  <Ligand>  (1) 
CHEMBL3805693

>  <SMILES>  (1) 
O[C@@H]1C[C@H]2[C@@H]([C@H]1/C=C/COc1ccccc1)CC[C@@H](O2)c1scc(n1)C(=O)O

>  <CID>  (1) 
127052615.0

>  <ChEMBL ID>  (1) 
nan

>  <InChiKey>  (1) 
YMDRBQRLLNYQNG-NRUVFZJOSA-N

>  <InChi>  (1) 
InChI=1S/C21H23NO5S/c23-17-11-19-15(14(17)7-4-10-26-13-5-2-1-3-6-13)8-9-18(27-19)20-22-16(12-28-20)21(24)25/h1-7,12,14-15,17-19,23H,8-11H2,(H,24,25)/b7-4+/t14-,15-,17-,18-,19+/m1/s1

>  <IUPAC Name>  (1) 
2-[(2R,4aR,5R,6R,7aS)-6-hydroxy-5-[(E)-3-phenoxyprop-1-enyl]-2,3,4,4a,5,6,7,7a-octahydrocyclopenta[b]pyran-2-yl]-1,3-thiazole-4-carboxylic acid

$$$$
