
     RDKit          3D

 26 27  0  0  0  0  0  0  0  0999 V2000
   -2.4632   -1.2622    0.5142 C   0  0  0  0  0  0  0  0  0  0  0  0
   -2.5804    0.1029   -0.1020 C   0  0  2  0  0  0  0  0  0  0  0  0
   -1.5065    0.4100   -1.1018 C   0  0  0  0  0  0  0  0  0  0  0  0
   -0.1357    0.3741   -0.5815 C   0  0  0  0  0  0  0  0  0  0  0  0
    0.4313    1.5266   -0.0592 C   0  0  0  0  0  0  0  0  0  0  0  0
    1.7177    1.5601    0.4467 C   0  0  0  0  0  0  0  0  0  0  0  0
    2.5003    0.4209    0.4494 C   0  0  0  0  0  0  0  0  0  0  0  0
    1.9524   -0.7559   -0.0718 C   0  0  0  0  0  0  0  0  0  0  0  0
    0.6583   -0.7621   -0.5736 C   0  0  0  0  0  0  0  0  0  0  0  0
    2.9464   -1.7423    0.0527 O   0  0  0  0  0  0  0  0  0  0  0  0
    4.1891   -1.0487    0.1409 C   0  0  0  0  0  0  0  0  0  0  0  0
    3.8019    0.1237    0.8742 O   0  0  0  0  0  0  0  0  0  0  0  0
   -2.7123    1.1207    0.9141 N   0  0  0  0  0  0  0  0  0  0  0  0
   -1.4398   -1.5765    0.7234 H   0  0  0  0  0  0  0  0  0  0  0  0
   -3.0902   -1.2628    1.4494 H   0  0  0  0  0  0  0  0  0  0  0  0
   -2.9500   -2.0480   -0.1270 H   0  0  0  0  0  0  0  0  0  0  0  0
   -3.5378    0.1128   -0.6665 H   0  0  0  0  0  0  0  0  0  0  0  0
   -1.7248    1.3715   -1.5703 H   0  0  0  0  0  0  0  0  0  0  0  0
   -1.6046   -0.3650   -1.9012 H   0  0  0  0  0  0  0  0  0  0  0  0
   -0.1182    2.4767   -0.0216 H   0  0  0  0  0  0  0  0  0  0  0  0
    2.1689    2.4519    0.8556 H   0  0  0  0  0  0  0  0  0  0  0  0
    0.2475   -1.6992   -0.9788 H   0  0  0  0  0  0  0  0  0  0  0  0
    4.9499   -1.5976    0.6977 H   0  0  0  0  0  0  0  0  0  0  0  0
    4.5476   -0.7120   -0.8360 H   0  0  0  0  0  0  0  0  0  0  0  0
   -3.1309    1.9957    0.5419 H   0  0  0  0  0  0  0  0  0  0  0  0
   -3.1171    0.7844    1.7955 H   0  0  0  0  0  0  0  0  0  0  0  0
  1  2  1  0
  2  3  1  0
  3  4  1  0
  4  5  2  0
  5  6  1  0
  6  7  2  0
  7  8  1  0
  8  9  2  0
  8 10  1  0
 10 11  1  0
 11 12  1  0
  2 13  1  0
  9  4  1  0
 12  7  1  0
  1 14  1  0
  1 15  1  0
  1 16  1  0
  2 17  1  6
  3 18  1  0
  3 19  1  0
  5 20  1  0
  6 21  1  0
  9 22  1  0
 11 23  1  0
 11 24  1  0
 13 25  1  0
 13 26  1  0
M  END
>  <Ligand ID>  (1) 
LIG0005464

>  <Ligand>  (1) 
(R)-Mda

>  <SMILES>  (1) 
C[C@H](Cc1ccc2c(c1)OCO2)N

>  <CID>  (1) 
3046161.0

>  <ChEMBL ID>  (1) 
nan

>  <InChiKey>  (1) 
NGBBVGZWCFBOGO-SSDOTTSWSA-N

>  <InChi>  (1) 
InChI=1S/C10H13NO2/c1-7(11)4-8-2-3-9-10(5-8)13-6-12-9/h2-3,5,7H,4,6,11H2,1H3/t7-/m1/s1

>  <IUPAC Name>  (1) 
(2R)-1-(1,3-benzodioxol-5-yl)propan-2-amine

$$$$
