
     RDKit          3D

 45 45  0  0  0  0  0  0  0  0999 V2000
   -3.1773    0.5587   -0.7238 C   0  0  0  0  0  0  0  0  0  0  0  0
   -2.8807    1.6430    0.2027 C   0  0  0  0  0  0  0  0  0  0  0  0
   -1.7398    2.5649    0.0173 C   0  0  0  0  0  0  0  0  0  0  0  0
   -0.4148    1.8999   -0.0678 C   0  0  0  0  0  0  0  0  0  0  0  0
    0.7641    2.8845   -0.0497 C   0  0  0  0  0  0  0  0  0  0  0  0
    2.0386    2.1066   -0.3421 C   0  0  0  0  0  0  0  0  0  0  0  0
    2.2667    0.9881    0.6359 C   0  0  0  0  0  0  0  0  0  0  0  0
    3.2995    0.0845    0.0218 C   0  0  0  0  0  0  0  0  0  0  0  0
    3.3184   -1.3089    0.5580 C   0  0  0  0  0  0  0  0  0  0  0  0
    2.1545   -2.1645    0.1843 C   0  0  0  0  0  0  0  0  0  0  0  0
    0.7966   -1.7747    0.6071 C   0  0  0  0  0  0  0  0  0  0  0  0
   -0.1920   -2.8300    0.0525 C   0  0  0  0  0  0  0  0  0  0  0  0
   -1.5514   -2.6195    0.6065 C   0  0  0  0  0  0  0  0  0  0  0  0
   -2.1856   -1.3008    0.5326 C   0  0  0  0  0  0  0  0  0  0  0  0
   -2.3316   -0.6617   -0.8056 C   0  0  0  0  0  0  0  0  0  0  0  0
   -3.2560    0.9895   -1.7679 H   0  0  0  0  0  0  0  0  0  0  0  0
   -4.2378    0.2109   -0.5132 H   0  0  0  0  0  0  0  0  0  0  0  0
   -3.8480    2.2709    0.3015 H   0  0  0  0  0  0  0  0  0  0  0  0
   -2.8541    1.2201    1.2849 H   0  0  0  0  0  0  0  0  0  0  0  0
   -1.8857    3.1345   -0.9510 H   0  0  0  0  0  0  0  0  0  0  0  0
   -1.7328    3.3786    0.8108 H   0  0  0  0  0  0  0  0  0  0  0  0
   -0.3117    1.2587    0.8213 H   0  0  0  0  0  0  0  0  0  0  0  0
   -0.3908    1.3333   -1.0197 H   0  0  0  0  0  0  0  0  0  0  0  0
    0.7961    3.4701    0.8766 H   0  0  0  0  0  0  0  0  0  0  0  0
    0.6053    3.5738   -0.8920 H   0  0  0  0  0  0  0  0  0  0  0  0
    2.8908    2.8103   -0.2737 H   0  0  0  0  0  0  0  0  0  0  0  0
    2.0133    1.7822   -1.4011 H   0  0  0  0  0  0  0  0  0  0  0  0
    1.4525    0.5593    1.1512 H   0  0  0  0  0  0  0  0  0  0  0  0
    2.8427    1.5034    1.5392 H   0  0  0  0  0  0  0  0  0  0  0  0
    3.2614    0.1116   -1.0965 H   0  0  0  0  0  0  0  0  0  0  0  0
    4.3267    0.5022    0.2436 H   0  0  0  0  0  0  0  0  0  0  0  0
    3.4143   -1.2403    1.6780 H   0  0  0  0  0  0  0  0  0  0  0  0
    4.2300   -1.8687    0.2515 H   0  0  0  0  0  0  0  0  0  0  0  0
    2.2027   -2.4512   -0.9131 H   0  0  0  0  0  0  0  0  0  0  0  0
    2.3589   -3.1650    0.6868 H   0  0  0  0  0  0  0  0  0  0  0  0
    0.4096   -0.8636    0.0680 H   0  0  0  0  0  0  0  0  0  0  0  0
    0.7090   -1.6256    1.6682 H   0  0  0  0  0  0  0  0  0  0  0  0
    0.1434   -3.8400    0.3326 H   0  0  0  0  0  0  0  0  0  0  0  0
   -0.2086   -2.7935   -1.0371 H   0  0  0  0  0  0  0  0  0  0  0  0
   -2.2074   -3.4086    0.1341 H   0  0  0  0  0  0  0  0  0  0  0  0
   -1.4641   -2.8974    1.7144 H   0  0  0  0  0  0  0  0  0  0  0  0
   -1.7260   -0.6099    1.2882 H   0  0  0  0  0  0  0  0  0  0  0  0
   -3.2526   -1.4340    0.9144 H   0  0  0  0  0  0  0  0  0  0  0  0
   -2.9974   -1.4171   -1.3846 H   0  0  0  0  0  0  0  0  0  0  0  0
   -1.4488   -0.5647   -1.4184 H   0  0  0  0  0  0  0  0  0  0  0  0
  1  2  1  0
  2  3  1  0
  3  4  1  0
  4  5  1  0
  5  6  1  0
  6  7  1  0
  7  8  1  0
  8  9  1  0
  9 10  1  0
 10 11  1  0
 11 12  1  0
 12 13  1  0
 13 14  1  0
 14 15  1  0
 15  1  1  0
  1 16  1  0
  1 17  1  0
  2 18  1  0
  2 19  1  0
  3 20  1  0
  3 21  1  0
  4 22  1  0
  4 23  1  0
  5 24  1  0
  5 25  1  0
  6 26  1  0
  6 27  1  0
  7 28  1  0
  7 29  1  0
  8 30  1  0
  8 31  1  0
  9 32  1  0
  9 33  1  0
 10 34  1  0
 10 35  1  0
 11 36  1  0
 11 37  1  0
 12 38  1  0
 12 39  1  0
 13 40  1  0
 13 41  1  0
 14 42  1  0
 14 43  1  0
 15 44  1  0
 15 45  1  0
M  END
>  <Ligand ID>  (1) 
LIG0000396

>  <Ligand>  (1) 
cyclopentadecane

>  <SMILES>  (1) 
C1CCCCCCCCCCCCCC1

>  <CID>  (1) 
67525.0

>  <ChEMBL ID>  (1) 
nan

>  <InChiKey>  (1) 
SRONXYPFSAKOGH-UHFFFAOYSA-N

>  <InChi>  (1) 
InChI=1S/C15H30/c1-2-4-6-8-10-12-14-15-13-11-9-7-5-3-1/h1-15H2

>  <IUPAC Name>  (1) 
cyclopentadecane

$$$$
