
     RDKit          3D

 64 68  0  0  0  0  0  0  0  0999 V2000
    4.3297    3.3480    0.9100 Br  0  0  0  0  0  0  0  0  0  0  0  0
    5.6347    2.0358    0.4210 C   0  0  0  0  0  0  0  0  0  0  0  0
    6.8437    2.4517   -0.1196 C   0  0  0  0  0  0  0  0  0  0  0  0
    7.7984    1.5296   -0.4811 C   0  0  0  0  0  0  0  0  0  0  0  0
    7.5123    0.1890   -0.2877 C   0  0  0  0  0  0  0  0  0  0  0  0
    6.3142   -0.2499    0.2495 C   0  0  0  0  0  0  0  0  0  0  0  0
    5.3691    0.6815    0.6063 C   0  0  0  0  0  0  0  0  0  0  0  0
    6.0949   -1.7279    0.4096 C   0  0  0  0  0  0  0  0  0  0  0  0
    5.4682   -2.2655   -0.8859 C   0  0  0  0  0  0  0  0  0  0  0  0
    4.2062   -1.6513   -1.1515 N   0  0  0  0  0  0  0  0  0  0  0  0
    3.0750   -1.7561   -0.2980 C   0  0  0  0  0  0  0  0  0  0  0  0
    3.2117   -2.4424    0.7456 O   0  0  0  0  0  0  0  0  0  0  0  0
    1.7943   -1.1210   -0.5724 C   0  0  0  0  0  0  0  0  0  0  0  0
    1.6531   -0.1986   -1.6055 C   0  0  0  0  0  0  0  0  0  0  0  0
    0.4247    0.3970   -1.8798 C   0  0  0  0  0  0  0  0  0  0  0  0
   -0.6838    0.0820   -1.1278 C   0  0  0  0  0  0  0  0  0  0  0  0
   -0.5271   -0.8394   -0.1021 C   0  0  0  0  0  0  0  0  0  0  0  0
    0.6861   -1.4362    0.1801 C   0  0  0  0  0  0  0  0  0  0  0  0
   -1.7758   -1.1602    0.6647 C   0  0  1  0  0  0  0  0  0  0  0  0
   -1.5865   -2.4766    1.4291 C   0  0  0  0  0  0  0  0  0  0  0  0
   -2.1026   -0.1026    1.6458 C   0  0  0  0  0  0  0  0  0  0  0  0
   -3.0148    0.9859    1.2131 C   0  0  0  0  0  0  0  0  0  0  0  0
   -3.8606    0.6284    0.1424 N   0  0  0  0  0  0  0  0  0  0  0  0
   -3.1776   -0.0131   -0.9261 C   0  0  0  0  0  0  0  0  0  0  0  0
   -1.9682    0.7110   -1.4153 C   0  0  0  0  0  0  0  0  0  0  0  0
   -2.8134   -1.3927   -0.4121 C   0  0  2  0  0  0  0  0  0  0  0  0
   -4.0056   -2.1668    0.0379 C   0  0  0  0  0  0  0  0  0  0  0  0
   -4.8410    1.5264   -0.3007 C   0  0  0  0  0  0  0  0  0  0  0  0
   -5.9753    1.7740    0.6314 C   0  0  0  0  0  0  0  0  0  0  0  0
   -6.9989    2.7696    0.0598 C   0  0  0  0  0  0  0  0  0  0  0  0
   -6.2478    3.0268    1.3275 C   0  0  0  0  0  0  0  0  0  0  0  0
    7.0708    3.5143   -0.2740 H   0  0  0  0  0  0  0  0  0  0  0  0
    8.7430    1.8514   -0.9028 H   0  0  0  0  0  0  0  0  0  0  0  0
    8.2600   -0.5364   -0.5715 H   0  0  0  0  0  0  0  0  0  0  0  0
    4.4338    0.3952    1.0280 H   0  0  0  0  0  0  0  0  0  0  0  0
    5.4308   -1.8921    1.2717 H   0  0  0  0  0  0  0  0  0  0  0  0
    7.0919   -2.1845    0.4932 H   0  0  0  0  0  0  0  0  0  0  0  0
    5.3511   -3.3799   -0.7851 H   0  0  0  0  0  0  0  0  0  0  0  0
    6.1733   -2.0879   -1.6970 H   0  0  0  0  0  0  0  0  0  0  0  0
    4.1075   -1.0793   -2.0429 H   0  0  0  0  0  0  0  0  0  0  0  0
    2.4691    0.0940   -2.2290 H   0  0  0  0  0  0  0  0  0  0  0  0
    0.3261    1.1077   -2.6786 H   0  0  0  0  0  0  0  0  0  0  0  0
    0.7704   -2.1489    0.9872 H   0  0  0  0  0  0  0  0  0  0  0  0
   -0.8334   -2.3320    2.2267 H   0  0  0  0  0  0  0  0  0  0  0  0
   -2.5588   -2.6087    1.9811 H   0  0  0  0  0  0  0  0  0  0  0  0
   -1.4017   -3.3150    0.7517 H   0  0  0  0  0  0  0  0  0  0  0  0
   -2.4745   -0.5711    2.5831 H   0  0  0  0  0  0  0  0  0  0  0  0
   -1.1248    0.3702    1.9578 H   0  0  0  0  0  0  0  0  0  0  0  0
   -2.4488    1.9307    1.0608 H   0  0  0  0  0  0  0  0  0  0  0  0
   -3.6922    1.2339    2.0881 H   0  0  0  0  0  0  0  0  0  0  0  0
   -3.9200   -0.2020   -1.7521 H   0  0  0  0  0  0  0  0  0  0  0  0
   -2.0578    0.7976   -2.5334 H   0  0  0  0  0  0  0  0  0  0  0  0
   -1.9581    1.7854   -1.0695 H   0  0  0  0  0  0  0  0  0  0  0  0
   -2.3220   -1.9331   -1.2389 H   0  0  0  0  0  0  0  0  0  0  0  0
   -3.6732   -3.1781    0.3326 H   0  0  0  0  0  0  0  0  0  0  0  0
   -4.6232   -1.6562    0.7851 H   0  0  0  0  0  0  0  0  0  0  0  0
   -4.6354   -2.3396   -0.8775 H   0  0  0  0  0  0  0  0  0  0  0  0
   -5.2880    1.1081   -1.2454 H   0  0  0  0  0  0  0  0  0  0  0  0
   -4.3966    2.5048   -0.6479 H   0  0  0  0  0  0  0  0  0  0  0  0
   -6.4716    0.8472    1.0179 H   0  0  0  0  0  0  0  0  0  0  0  0
   -8.0548    2.4966    0.0333 H   0  0  0  0  0  0  0  0  0  0  0  0
   -6.6838    3.4243   -0.7773 H   0  0  0  0  0  0  0  0  0  0  0  0
   -6.9036    2.9770    2.2283 H   0  0  0  0  0  0  0  0  0  0  0  0
   -5.5426    3.8703    1.3878 H   0  0  0  0  0  0  0  0  0  0  0  0
  1  2  1  0
  2  3  2  0
  3  4  1  0
  4  5  2  0
  5  6  1  0
  6  7  2  0
  6  8  1  0
  8  9  1  0
  9 10  1  0
 10 11  1  0
 11 12  2  0
 11 13  1  0
 13 14  2  0
 14 15  1  0
 15 16  2  0
 16 17  1  0
 17 18  2  0
 17 19  1  0
 19 20  1  1
 19 21  1  0
 21 22  1  0
 22 23  1  0
 23 24  1  0
 24 25  1  0
 24 26  1  0
 26 27  1  0
 23 28  1  0
 28 29  1  0
 29 30  1  0
 30 31  1  0
  7  2  1  0
 18 13  1  0
 26 19  1  0
 31 29  1  0
 25 16  1  0
  3 32  1  0
  4 33  1  0
  5 34  1  0
  7 35  1  0
  8 36  1  0
  8 37  1  0
  9 38  1  0
  9 39  1  0
 10 40  1  0
 14 41  1  0
 15 42  1  0
 18 43  1  0
 20 44  1  0
 20 45  1  0
 20 46  1  0
 21 47  1  0
 21 48  1  0
 22 49  1  0
 22 50  1  0
 24 51  1  0
 25 52  1  0
 25 53  1  0
 26 54  1  6
 27 55  1  0
 27 56  1  0
 27 57  1  0
 28 58  1  0
 28 59  1  0
 29 60  1  0
 30 61  1  0
 30 62  1  0
 31 63  1  0
 31 64  1  0
M  END
>  <Ligand ID>  (1) 
LIG0002292

>  <Ligand>  (1) 
CHEMBL250993

>  <SMILES>  (1) 
Brc1cccc(c1)CCNC(=O)c1ccc2c(c1)[C@@]1(C)CCN(C(C2)[C@@H]1C)CC1CC1

>  <CID>  (1) 
16048867.0

>  <ChEMBL ID>  (1) 
nan

>  <InChiKey>  (1) 
CFCYDKRYHOSVHZ-CGOBKJRRSA-N

>  <InChi>  (1) 
InChI=1S/C27H33BrN2O/c1-18-25-16-21-8-9-22(26(31)29-12-10-19-4-3-5-23(28)14-19)15-24(21)27(18,2)11-13-30(25)17-20-6-7-20/h3-5,8-9,14-15,18,20,25H,6-7,10-13,16-17H2,1-2H3,(H,29,31)/t18-,25?,27-/m0/s1

>  <IUPAC Name>  (1) 
(1S,13R)-N-[2-(3-bromophenyl)ethyl]-10-(cyclopropylmethyl)-1,13-dimethyl-10-azatricyclo[7.3.1.02,7]trideca-2(7),3,5-triene-4-carboxamide

$$$$
