
     RDKit          3D

142144  0  0  0  0  0  0  0  0999 V2000
    5.8234   -4.5723   -0.6727 C   0  0  0  0  0  0  0  0  0  0  0  0
    6.8822   -3.7175   -0.1013 C   0  0  0  0  0  0  0  0  0  0  0  0
    6.5325   -2.3018    0.1346 C   0  0  1  0  0  0  0  0  0  0  0  0
    6.1902   -1.3819   -0.9634 C   0  0  2  0  0  0  0  0  0  0  0  0
    5.8919   -0.0402   -0.2979 N   0  0  0  0  0  0  0  0  0  0  0  0
    6.8113    1.0152   -0.2771 C   0  0  0  0  0  0  0  0  0  0  0  0
    7.8926    0.8308   -0.8589 O   0  0  0  0  0  0  0  0  0  0  0  0
    6.5134    2.3236    0.4181 C   0  0  1  0  0  0  0  0  0  0  0  0
    5.1715    2.1916    0.9394 N   0  0  0  0  0  0  0  0  0  0  0  0
    4.1608    3.2161    0.7373 C   0  0  0  0  0  0  0  0  0  0  0  0
    4.5796    4.2396    0.2157 O   0  0  0  0  0  0  0  0  0  0  0  0
    2.7972    2.9021    1.1871 C   0  0  0  0  0  0  0  0  0  0  0  0
    1.8955    4.0435    1.4841 C   0  0  0  0  0  0  0  0  0  0  0  0
    0.2117    3.4315    1.8661 S   0  0  0  0  0  0  0  0  0  0  0  0
   -0.7883    2.8562    0.1223 S   0  0  0  0  0  0  0  0  0  0  0  0
   -0.5713    1.2349   -0.4296 C   0  0  0  0  0  0  0  0  0  0  0  0
   -1.2643    0.0847    0.4801 C   0  0  2  0  0  0  0  0  0  0  0  0
   -1.0143   -1.0945   -0.3894 N   0  0  0  0  0  0  0  0  0  0  0  0
    0.2808   -1.6337   -0.5691 C   0  0  0  0  0  0  0  0  0  0  0  0
    1.2134   -1.0890    0.0091 O   0  0  0  0  0  0  0  0  0  0  0  0
    0.5569   -2.8373   -1.4494 C   0  0  1  0  0  0  0  0  0  0  0  0
    1.9914   -2.8060   -1.8187 N   0  0  0  0  0  0  0  0  0  0  0  0
    2.3662   -2.5182   -3.1576 C   0  0  0  0  0  0  0  0  0  0  0  0
    1.3869   -2.3881   -3.9473 O   0  0  0  0  0  0  0  0  0  0  0  0
    3.6942   -2.3549   -3.7347 C   0  0  1  0  0  0  0  0  0  0  0  0
    4.8608   -2.4968   -2.9223 N   0  0  0  0  0  0  0  0  0  0  0  0
    5.1176   -1.5297   -1.8720 C   0  0  0  0  0  0  0  0  0  0  0  0
    4.1565   -0.6741   -1.8111 O   0  0  0  0  0  0  0  0  0  0  0  0
    3.8700   -2.8556   -5.1159 C   0  0  0  0  0  0  0  0  0  0  0  0
    3.5953   -4.2669   -5.4370 C   0  0  0  0  0  0  0  0  0  0  0  0
    4.3457   -5.3584   -4.8836 C   0  0  0  0  0  0  0  0  0  0  0  0
    5.4452   -5.3717   -4.2905 O   0  0  0  0  0  0  0  0  0  0  0  0
    3.7553   -6.6952   -5.0201 N   0  0  0  0  0  0  0  0  0  0  0  0
    0.1582   -4.0644   -0.7201 C   0  0  0  0  0  0  0  0  0  0  0  0
    0.3716   -5.2928   -1.4706 C   0  0  0  0  0  0  0  0  0  0  0  0
    0.0890   -6.3950   -0.8995 O   0  0  0  0  0  0  0  0  0  0  0  0
    0.8706   -5.3986   -2.7927 N   0  0  0  0  0  0  0  0  0  0  0  0
   -2.6185    0.5626    0.4934 C   0  0  0  0  0  0  0  0  0  0  0  0
   -3.1367    0.7560   -0.6977 O   0  0  0  0  0  0  0  0  0  0  0  0
   -3.5006    0.8716    1.5509 N   0  0  0  0  0  0  0  0  0  0  0  0
   -3.3843    0.4809    2.9309 C   0  0  0  0  0  0  0  0  0  0  0  0
   -3.7830   -0.9763    3.1424 C   0  0  0  0  0  0  0  0  0  0  0  0
   -2.6950   -1.9571    2.8803 C   0  0  0  0  0  0  0  0  0  0  0  0
   -1.4011   -1.6164    3.5288 C   0  0  0  0  0  0  0  0  0  0  0  0
   -1.3433   -0.3022    4.2186 C   0  0  0  0  0  0  0  0  0  0  0  0
   -2.1541    0.8130    3.6567 C   0  0  0  0  0  0  0  0  0  0  0  0
   -4.6118    1.7780    1.2005 C   0  0  0  0  0  0  0  0  0  0  0  0
   -5.8234    1.1219    0.7224 C   0  0  0  0  0  0  0  0  0  0  0  0
   -6.0370   -0.0902    0.5999 O   0  0  0  0  0  0  0  0  0  0  0  0
   -6.9033    2.0035    0.3424 N   0  0  0  0  0  0  0  0  0  0  0  0
   -8.1747    1.5311   -0.1485 C   0  0  2  0  0  0  0  0  0  0  0  0
   -8.0966    1.7489   -1.6516 C   0  0  0  0  0  0  0  0  0  0  0  0
   -7.0184    2.2315   -2.1392 O   0  0  0  0  0  0  0  0  0  0  0  0
   -9.1848    1.4289   -2.5060 N   0  0  0  0  0  0  0  0  0  0  0  0
   -8.9854    1.6826   -3.9261 C   0  0  0  0  0  0  0  0  0  0  0  0
  -10.2109    1.3028   -4.6591 C   0  0  0  0  0  0  0  0  0  0  0  0
  -10.3296    1.4068   -5.9080 O   0  0  0  0  0  0  0  0  0  0  0  0
  -11.3652    0.7816   -3.9731 N   0  0  0  0  0  0  0  0  0  0  0  0
   -9.3094    2.4183    0.2974 C   0  0  0  0  0  0  0  0  0  0  0  0
   -9.4423    2.5152    1.8030 C   0  0  0  0  0  0  0  0  0  0  0  0
   -9.6925    1.1605    2.4287 C   0  0  0  0  0  0  0  0  0  0  0  0
  -10.6971    3.3621    2.0633 C   0  0  0  0  0  0  0  0  0  0  0  0
    7.5018    2.4091    1.5609 C   0  0  0  0  0  0  0  0  0  0  0  0
    7.3496    3.6453    2.3593 C   0  0  0  0  0  0  0  0  0  0  0  0
    8.0926    4.7621    1.9491 C   0  0  0  0  0  0  0  0  0  0  0  0
    7.9886    5.9664    2.6673 C   0  0  0  0  0  0  0  0  0  0  0  0
    7.1532    6.0291    3.7669 C   0  0  0  0  0  0  0  0  0  0  0  0
    6.4170    4.9216    4.1736 C   0  0  0  0  0  0  0  0  0  0  0  0
    6.5332    3.7562    3.4592 C   0  0  0  0  0  0  0  0  0  0  0  0
    7.0829    7.2375    4.4440 O   0  0  0  0  0  0  0  0  0  0  0  0
    5.4452   -2.3027    1.2209 C   0  0  0  0  0  0  0  0  0  0  0  0
    5.6688   -5.4465    0.0318 H   0  0  0  0  0  0  0  0  0  0  0  0
    4.8343   -4.0742   -0.6943 H   0  0  0  0  0  0  0  0  0  0  0  0
    6.0895   -5.0197   -1.6555 H   0  0  0  0  0  0  0  0  0  0  0  0
    7.7734   -3.7993   -0.8273 H   0  0  0  0  0  0  0  0  0  0  0  0
    7.2724   -4.1646    0.8615 H   0  0  0  0  0  0  0  0  0  0  0  0
    7.4758   -1.8723    0.6575 H   0  0  0  0  0  0  0  0  0  0  0  0
    7.1520   -1.1307   -1.4855 H   0  0  0  0  0  0  0  0  0  0  0  0
    4.9900    0.0739    0.1296 H   0  0  0  0  0  0  0  0  0  0  0  0
    6.6351    3.1134   -0.3089 H   0  0  0  0  0  0  0  0  0  0  0  0
    4.8502    1.4020    1.4981 H   0  0  0  0  0  0  0  0  0  0  0  0
    2.2686    2.2181    0.4790 H   0  0  0  0  0  0  0  0  0  0  0  0
    2.8627    2.2919    2.1459 H   0  0  0  0  0  0  0  0  0  0  0  0
    1.7884    4.6426    0.5550 H   0  0  0  0  0  0  0  0  0  0  0  0
    2.3061    4.6665    2.2933 H   0  0  0  0  0  0  0  0  0  0  0  0
    0.4807    0.9502   -0.4808 H   0  0  0  0  0  0  0  0  0  0  0  0
   -0.9823    1.0226   -1.4651 H   0  0  0  0  0  0  0  0  0  0  0  0
   -0.6643    0.1206    1.3609 H   0  0  0  0  0  0  0  0  0  0  0  0
   -1.7625   -1.5706   -0.8986 H   0  0  0  0  0  0  0  0  0  0  0  0
   -0.0100   -2.7109   -2.3712 H   0  0  0  0  0  0  0  0  0  0  0  0
    2.7497   -2.9855   -1.1707 H   0  0  0  0  0  0  0  0  0  0  0  0
    3.6116   -1.1616   -3.9324 H   0  0  0  0  0  0  0  0  0  0  0  0
    5.5913   -3.1903   -2.9989 H   0  0  0  0  0  0  0  0  0  0  0  0
    4.9101   -2.5671   -5.4565 H   0  0  0  0  0  0  0  0  0  0  0  0
    3.2087   -2.2392   -5.7997 H   0  0  0  0  0  0  0  0  0  0  0  0
    3.7193   -4.3451   -6.5749 H   0  0  0  0  0  0  0  0  0  0  0  0
    2.4573   -4.4580   -5.3718 H   0  0  0  0  0  0  0  0  0  0  0  0
    3.2750   -6.9634   -5.9044 H   0  0  0  0  0  0  0  0  0  0  0  0
    3.8315   -7.3724   -4.2132 H   0  0  0  0  0  0  0  0  0  0  0  0
   -0.9547   -3.9844   -0.5544 H   0  0  0  0  0  0  0  0  0  0  0  0
    0.6011   -4.0729    0.3002 H   0  0  0  0  0  0  0  0  0  0  0  0
    1.9004   -5.3372   -2.9973 H   0  0  0  0  0  0  0  0  0  0  0  0
    0.2431   -5.5447   -3.6251 H   0  0  0  0  0  0  0  0  0  0  0  0
   -4.2650    1.0109    3.4550 H   0  0  0  0  0  0  0  0  0  0  0  0
   -4.0077   -1.0681    4.2483 H   0  0  0  0  0  0  0  0  0  0  0  0
   -4.7112   -1.2286    2.6547 H   0  0  0  0  0  0  0  0  0  0  0  0
   -2.5266   -2.1013    1.7868 H   0  0  0  0  0  0  0  0  0  0  0  0
   -2.9961   -2.9966    3.2266 H   0  0  0  0  0  0  0  0  0  0  0  0
   -0.5306   -1.7511    2.8168 H   0  0  0  0  0  0  0  0  0  0  0  0
   -1.1881   -2.4092    4.3122 H   0  0  0  0  0  0  0  0  0  0  0  0
   -0.2412   -0.0162    4.2595 H   0  0  0  0  0  0  0  0  0  0  0  0
   -1.5810   -0.4557    5.3141 H   0  0  0  0  0  0  0  0  0  0  0  0
   -1.5042    1.4722    3.0526 H   0  0  0  0  0  0  0  0  0  0  0  0
   -2.4393    1.4521    4.5596 H   0  0  0  0  0  0  0  0  0  0  0  0
   -4.2980    2.5287    0.4310 H   0  0  0  0  0  0  0  0  0  0  0  0
   -4.8267    2.4137    2.1023 H   0  0  0  0  0  0  0  0  0  0  0  0
   -6.7883    3.0576    0.4132 H   0  0  0  0  0  0  0  0  0  0  0  0
   -8.3378    0.4530    0.0137 H   0  0  0  0  0  0  0  0  0  0  0  0
  -10.0731    1.0353   -2.1159 H   0  0  0  0  0  0  0  0  0  0  0  0
   -8.8271    2.7713   -4.0190 H   0  0  0  0  0  0  0  0  0  0  0  0
   -8.1036    1.1197   -4.3067 H   0  0  0  0  0  0  0  0  0  0  0  0
  -11.7603    1.4093   -3.2392 H   0  0  0  0  0  0  0  0  0  0  0  0
  -11.7781   -0.1410   -4.1843 H   0  0  0  0  0  0  0  0  0  0  0  0
  -10.2869    2.0585   -0.0825 H   0  0  0  0  0  0  0  0  0  0  0  0
   -9.1423    3.4402   -0.0694 H   0  0  0  0  0  0  0  0  0  0  0  0
   -8.5992    3.0655    2.2541 H   0  0  0  0  0  0  0  0  0  0  0  0
   -8.8222    0.8752    3.0593 H   0  0  0  0  0  0  0  0  0  0  0  0
   -9.8203    0.4226    1.5879 H   0  0  0  0  0  0  0  0  0  0  0  0
  -10.6377    1.1627    3.0080 H   0  0  0  0  0  0  0  0  0  0  0  0
  -11.4921    2.9720    1.3647 H   0  0  0  0  0  0  0  0  0  0  0  0
  -10.5057    4.4229    1.8674 H   0  0  0  0  0  0  0  0  0  0  0  0
  -11.0610    3.2501    3.0853 H   0  0  0  0  0  0  0  0  0  0  0  0
    8.5449    2.3688    1.1971 H   0  0  0  0  0  0  0  0  0  0  0  0
    7.3515    1.5398    2.2343 H   0  0  0  0  0  0  0  0  0  0  0  0
    8.7473    4.6927    1.0697 H   0  0  0  0  0  0  0  0  0  0  0  0
    8.5745    6.8399    2.3390 H   0  0  0  0  0  0  0  0  0  0  0  0
    5.7758    5.0245    5.0426 H   0  0  0  0  0  0  0  0  0  0  0  0
    5.9554    2.8677    3.7683 H   0  0  0  0  0  0  0  0  0  0  0  0
    6.8474    8.0967    3.9491 H   0  0  0  0  0  0  0  0  0  0  0  0
    5.8252   -1.6753    2.0483 H   0  0  0  0  0  0  0  0  0  0  0  0
    5.3372   -3.3172    1.5886 H   0  0  0  0  0  0  0  0  0  0  0  0
    4.5124   -1.8299    0.8376 H   0  0  0  0  0  0  0  0  0  0  0  0
  1  2  1  0
  2  3  1  0
  3  4  1  0
  4  5  1  0
  5  6  1  0
  6  7  2  0
  6  8  1  0
  8  9  1  0
  9 10  1  0
 10 11  2  0
 10 12  1  0
 12 13  1  0
 13 14  1  0
 14 15  1  0
 15 16  1  0
 16 17  1  0
 17 18  1  0
 18 19  1  0
 19 20  2  0
 19 21  1  0
 21 22  1  0
 22 23  1  0
 23 24  2  0
 23 25  1  0
 25 26  1  0
 26 27  1  0
 27 28  2  0
 25 29  1  0
 29 30  1  0
 30 31  1  0
 31 32  2  0
 31 33  1  0
 21 34  1  0
 34 35  1  0
 35 36  2  0
 35 37  1  0
 17 38  1  0
 38 39  2  0
 38 40  1  0
 40 41  1  0
 41 42  1  0
 42 43  1  0
 43 44  1  0
 44 45  1  0
 45 46  1  0
 40 47  1  0
 47 48  1  0
 48 49  2  0
 48 50  1  0
 50 51  1  0
 51 52  1  0
 52 53  2  0
 52 54  1  0
 54 55  1  0
 55 56  1  0
 56 57  2  0
 56 58  1  0
 51 59  1  0
 59 60  1  0
 60 61  1  0
 60 62  1  0
  8 63  1  0
 63 64  1  0
 64 65  2  0
 65 66  1  0
 66 67  2  0
 67 68  1  0
 68 69  2  0
 67 70  1  0
  3 71  1  0
 27  4  1  0
 46 41  1  0
 69 64  1  0
  1 72  1  0
  1 73  1  0
  1 74  1  0
  2 75  1  0
  2 76  1  0
  3 77  1  1
  4 78  1  6
  5 79  1  0
  8 80  1  6
  9 81  1  0
 12 82  1  0
 12 83  1  0
 13 84  1  0
 13 85  1  0
 16 86  1  0
 16 87  1  0
 17 88  1  1
 18 89  1  0
 21 90  1  6
 22 91  1  0
 25 92  1  6
 26 93  1  0
 29 94  1  0
 29 95  1  0
 30 96  1  0
 30 97  1  0
 33 98  1  0
 33 99  1  0
 34100  1  0
 34101  1  0
 37102  1  0
 37103  1  0
 41104  1  0
 42105  1  0
 42106  1  0
 43107  1  0
 43108  1  0
 44109  1  0
 44110  1  0
 45111  1  0
 45112  1  0
 46113  1  0
 46114  1  0
 47115  1  0
 47116  1  0
 50117  1  0
 51118  1  6
 54119  1  0
 55120  1  0
 55121  1  0
 58122  1  0
 58123  1  0
 59124  1  0
 59125  1  0
 60126  1  0
 61127  1  0
 61128  1  0
 61129  1  0
 62130  1  0
 62131  1  0
 62132  1  0
 63133  1  0
 63134  1  0
 65135  1  0
 66136  1  0
 68137  1  0
 69138  1  0
 70139  1  0
 71140  1  0
 71141  1  0
 71142  1  0
M  END
>  <Ligand ID>  (1) 
LIG0001630

>  <Ligand>  (1) 
CHEMBL3353941

>  <SMILES>  (1) 
CC[C@@H]([C@@H]1NC(=O)[C@@H](NC(=O)CCSSC[C@H](NC(=O)[C@@H](NC(=O)[C@@H](NC1=O)CCC(=O)N)CC(=O)N)C(=O)N(C1CCCCC1)CC(=O)N[C@H](C(=O)NCC(=O)N)CC(C)C)Cc1ccc(cc1)O)C

>  <CID>  (1) 
118719830.0

>  <ChEMBL ID>  (1) 
nan

>  <InChiKey>  (1) 
RDXACMZSHYCPJK-LZNUSVCISA-N

>  <InChi>  (1) 
InChI=1S/C46H71N11O12S2/c1-5-26(4)40-45(68)53-30(15-16-35(47)59)42(65)54-33(21-36(48)60)43(66)55-34(24-71-70-18-17-38(62)51-32(44(67)56-40)20-27-11-13-29(58)14-12-27)46(69)57(28-9-7-6-8-10-28)23-39(63)52-31(19-25(2)3)41(64)50-22-37(49)61/h11-14,25-26,28,30-34,40,58H,5-10,15-24H2,1-4H3,(H2,47,59)(H2,48,60)(H2,49,61)(H,50,64)(H,51,62)(H,52,63)(H,53,68)(H,54,65)(H,55,66)(H,56,67)/t26-,30-,31-,32-,33-,34-,40-/m0/s1

>  <IUPAC Name>  (1) 
(4R,7S,10S,13S,16S)-7-(2-amino-2-oxoethyl)-N-[2-[[(2S)-1-[(2-amino-2-oxoethyl)amino]-4-methyl-1-oxopentan-2-yl]amino]-2-oxoethyl]-10-(3-amino-3-oxopropyl)-13-[(2S)-butan-2-yl]-N-cyclohexyl-16-[(4-hydroxyphenyl)methyl]-6,9,12,15,18-pentaoxo-1,2-dithia-5,8,11,14,17-pentazacycloicosane-4-carboxamide

$$$$
