
     RDKit          3D

 26 25  0  0  0  0  0  0  0  0999 V2000
   -3.1733   -1.4236    0.7047 C   0  0  0  0  0  0  0  0  0  0  0  0
   -1.7957   -0.9381    0.3258 C   0  0  0  0  0  0  0  0  0  0  0  0
   -1.8255    0.4794   -0.1624 C   0  0  0  0  0  0  0  0  0  0  0  0
   -0.4716    0.9918   -0.5518 C   0  0  0  0  0  0  0  0  0  0  0  0
    0.4884    0.9649    0.5904 C   0  0  0  0  0  0  0  0  0  0  0  0
    1.8636    1.4804    0.2257 C   0  0  0  0  0  0  0  0  0  0  0  0
    2.5174    0.6761   -0.8796 C   0  0  0  0  0  0  0  0  0  0  0  0
    2.6820   -0.7469   -0.4839 C   0  0  0  0  0  0  0  0  0  0  0  0
    3.6179   -1.0154    0.3400 O   0  0  0  0  0  0  0  0  0  0  0  0
    1.8631   -1.7613   -0.9771 O   0  0  0  0  0  0  0  0  0  0  0  0
   -3.2012   -1.8332    1.7270 H   0  0  0  0  0  0  0  0  0  0  0  0
   -3.4455   -2.2872    0.0384 H   0  0  0  0  0  0  0  0  0  0  0  0
   -3.9712   -0.6769    0.5667 H   0  0  0  0  0  0  0  0  0  0  0  0
   -1.3631   -1.5887   -0.4614 H   0  0  0  0  0  0  0  0  0  0  0  0
   -1.1813   -0.9762    1.2557 H   0  0  0  0  0  0  0  0  0  0  0  0
   -2.1541    1.0894    0.7282 H   0  0  0  0  0  0  0  0  0  0  0  0
   -2.5956    0.6597   -0.9240 H   0  0  0  0  0  0  0  0  0  0  0  0
   -0.6121    1.9967   -0.9601 H   0  0  0  0  0  0  0  0  0  0  0  0
   -0.0761    0.2850   -1.3291 H   0  0  0  0  0  0  0  0  0  0  0  0
    0.1125    1.6242    1.3918 H   0  0  0  0  0  0  0  0  0  0  0  0
    0.6022   -0.0325    1.0367 H   0  0  0  0  0  0  0  0  0  0  0  0
    2.5019    1.3076    1.1274 H   0  0  0  0  0  0  0  0  0  0  0  0
    1.8860    2.5542    0.0187 H   0  0  0  0  0  0  0  0  0  0  0  0
    3.5265    1.1150   -1.0152 H   0  0  0  0  0  0  0  0  0  0  0  0
    1.9905    0.7798   -1.8344 H   0  0  0  0  0  0  0  0  0  0  0  0
    2.2143   -2.7241   -0.9512 H   0  0  0  0  0  0  0  0  0  0  0  0
  1  2  1  0
  2  3  1  0
  3  4  1  0
  4  5  1  0
  5  6  1  0
  6  7  1  0
  7  8  1  0
  8  9  2  0
  8 10  1  0
  1 11  1  0
  1 12  1  0
  1 13  1  0
  2 14  1  0
  2 15  1  0
  3 16  1  0
  3 17  1  0
  4 18  1  0
  4 19  1  0
  5 20  1  0
  5 21  1  0
  6 22  1  0
  6 23  1  0
  7 24  1  0
  7 25  1  0
 10 26  1  0
M  END
>  <Ligand ID>  (1) 
LIG0000089

>  <Ligand>  (1) 
Octanoic acid

>  <SMILES>  (1) 
CCCCCCCC(=O)O

>  <CID>  (1) 
379.0

>  <ChEMBL ID>  (1) 
nan

>  <InChiKey>  (1) 
WWZKQHOCKIZLMA-UHFFFAOYSA-N

>  <InChi>  (1) 
InChI=1S/C8H16O2/c1-2-3-4-5-6-7-8(9)10/h2-7H2,1H3,(H,9,10)

>  <IUPAC Name>  (1) 
octanoic acid

$$$$
