
     RDKit          3D

 24 25  0  0  0  0  0  0  0  0999 V2000
   -3.8239    0.9513   -0.1620 N   0  0  0  0  0  0  0  0  0  0  0  0
   -2.6414    0.1055   -0.2604 C   0  0  0  0  0  0  0  0  0  0  0  0
   -1.8059    0.2900    0.9987 C   0  0  0  0  0  0  0  0  0  0  0  0
   -0.6147   -0.5652    0.8941 N   0  0  0  0  0  0  0  0  0  0  0  0
   -0.5278   -1.8196    1.3139 N   0  0  0  0  0  0  0  0  0  0  0  0
    0.7016   -2.3163    1.0675 C   0  0  0  0  0  0  0  0  0  0  0  0
    1.4272   -1.2966    0.4513 C   0  0  0  0  0  0  0  0  0  0  0  0
    0.5790   -0.1942    0.3489 C   0  0  0  0  0  0  0  0  0  0  0  0
    1.0025    0.9945   -0.2236 C   0  0  0  0  0  0  0  0  0  0  0  0
    2.2957    1.0700   -0.6972 C   0  0  0  0  0  0  0  0  0  0  0  0
    2.7899    2.2419   -1.2882 O   0  0  0  0  0  0  0  0  0  0  0  0
    3.1682   -0.0101   -0.6112 C   0  0  0  0  0  0  0  0  0  0  0  0
    2.7195   -1.1990   -0.0299 C   0  0  0  0  0  0  0  0  0  0  0  0
   -4.4362    0.6390    0.6075 H   0  0  0  0  0  0  0  0  0  0  0  0
   -4.3125    1.0103   -1.0816 H   0  0  0  0  0  0  0  0  0  0  0  0
   -2.0497    0.4001   -1.1301 H   0  0  0  0  0  0  0  0  0  0  0  0
   -2.9838   -0.9536   -0.2758 H   0  0  0  0  0  0  0  0  0  0  0  0
   -1.4643    1.3316    1.1081 H   0  0  0  0  0  0  0  0  0  0  0  0
   -2.3753   -0.0783    1.8888 H   0  0  0  0  0  0  0  0  0  0  0  0
    1.1030   -3.2999    1.2817 H   0  0  0  0  0  0  0  0  0  0  0  0
    0.3501    1.8574   -0.3078 H   0  0  0  0  0  0  0  0  0  0  0  0
    3.3515    2.8533   -0.6823 H   0  0  0  0  0  0  0  0  0  0  0  0
    4.1872    0.0570   -0.9871 H   0  0  0  0  0  0  0  0  0  0  0  0
    3.3601   -2.0691    0.0610 H   0  0  0  0  0  0  0  0  0  0  0  0
  1  2  1  0
  2  3  1  0
  3  4  1  0
  4  5  1  0
  5  6  2  0
  6  7  1  0
  7  8  2  0
  8  9  1  0
  9 10  2  0
 10 11  1  0
 10 12  1  0
 12 13  2  0
  8  4  1  0
 13  7  1  0
  1 14  1  0
  1 15  1  0
  2 16  1  0
  2 17  1  0
  3 18  1  0
  3 19  1  0
  6 20  1  0
  9 21  1  0
 11 22  1  0
 12 23  1  0
 13 24  1  0
M  END
>  <Ligand ID>  (1) 
LIG0002794

>  <Ligand>  (1) 
1-(2-aminoethyl)-1H-indazol-6-ol

>  <SMILES>  (1) 
NCCn1ncc2c1cc(O)cc2

>  <CID>  (1) 
135520431.0

>  <ChEMBL ID>  (1) 
nan

>  <InChiKey>  (1) 
RVQKKYXTHSVLLB-UHFFFAOYSA-N

>  <InChi>  (1) 
InChI=1S/C9H11N3O/c10-3-4-12-9-5-8(13)2-1-7(9)6-11-12/h1-2,5-6,13H,3-4,10H2

>  <IUPAC Name>  (1) 
1-(2-aminoethyl)indazol-6-ol

$$$$
