
     RDKit          3D

 46 48  0  0  0  0  0  0  0  0999 V2000
   -6.1274    1.8244   -0.7064 C   0  0  0  0  0  0  0  0  0  0  0  0
   -5.3350    0.7089   -0.5455 O   0  0  0  0  0  0  0  0  0  0  0  0
   -5.7668   -0.5845   -0.4979 C   0  0  0  0  0  0  0  0  0  0  0  0
   -7.1478   -0.7771   -0.6243 C   0  0  0  0  0  0  0  0  0  0  0  0
   -7.7028   -2.0559   -0.5907 C   0  0  0  0  0  0  0  0  0  0  0  0
   -6.8341   -3.0632   -0.4326 N   0  0  0  0  0  0  0  0  0  0  0  0
   -5.5164   -2.9016   -0.3110 C   0  0  0  0  0  0  0  0  0  0  0  0
   -4.9097   -1.6302   -0.3374 C   0  0  0  0  0  0  0  0  0  0  0  0
   -3.4925   -1.6483   -0.1819 C   0  0  0  0  0  0  0  0  0  0  0  0
   -2.8170   -2.5987   -0.0688 O   0  0  0  0  0  0  0  0  0  0  0  0
   -2.7503   -0.1309   -0.1661 N   0  0  0  0  0  0  0  0  0  0  0  0
   -1.3905   -0.6251   -0.0464 C   0  0  0  0  0  0  0  0  0  0  0  0
   -0.9143   -1.7206    0.0132 O   0  0  0  0  0  0  0  0  0  0  0  0
   -0.5521    0.5920   -0.0006 N   0  0  0  0  0  0  0  0  0  0  0  0
    0.8132    0.5962    0.1184 C   0  0  0  0  0  0  0  0  0  0  0  0
    1.4362    1.8577    0.0810 C   0  0  0  0  0  0  0  0  0  0  0  0
    2.7953    1.9495    0.1905 C   0  0  0  0  0  0  0  0  0  0  0  0
    3.5180    0.7836    0.3365 C   0  0  0  0  0  0  0  0  0  0  0  0
    2.9733   -0.4716    0.3796 C   0  0  0  0  0  0  0  0  0  0  0  0
    1.5755   -0.5320    0.2635 C   0  0  0  0  0  0  0  0  0  0  0  0
    3.7389   -1.7306    0.5057 C   0  0  0  0  0  0  0  0  0  0  0  0
    4.4553   -1.7738    1.6714 F   0  0  0  0  0  0  0  0  0  0  0  0
    4.5309   -1.9575   -0.6053 F   0  0  0  0  0  0  0  0  0  0  0  0
    2.8439   -2.8140    0.5896 F   0  0  0  0  0  0  0  0  0  0  0  0
    4.9580    0.9384    0.4796 C   0  0  0  0  0  0  0  0  0  0  0  0
    5.6658    0.7725    1.6175 C   0  0  0  0  0  0  0  0  0  0  0  0
    7.0614    0.9103    1.6245 C   0  0  0  0  0  0  0  0  0  0  0  0
    7.7125    1.2193    0.4535 C   0  0  0  0  0  0  0  0  0  0  0  0
    7.0134    1.3960   -0.7288 C   0  0  0  0  0  0  0  0  0  0  0  0
    5.6585    1.2518   -0.6839 C   0  0  0  0  0  0  0  0  0  0  0  0
   -5.4427    2.7246   -0.6657 H   0  0  0  0  0  0  0  0  0  0  0  0
   -6.8426    1.9281    0.1519 H   0  0  0  0  0  0  0  0  0  0  0  0
   -6.6806    1.9002   -1.6497 H   0  0  0  0  0  0  0  0  0  0  0  0
   -7.8116    0.0876   -0.7531 H   0  0  0  0  0  0  0  0  0  0  0  0
   -8.7574   -2.1456   -0.6884 H   0  0  0  0  0  0  0  0  0  0  0  0
   -4.8937   -3.7747   -0.1884 H   0  0  0  0  0  0  0  0  0  0  0  0
   -3.5148    0.1468   -0.2333 H   0  0  0  0  0  0  0  0  0  0  0  0
   -1.1015    1.5042   -0.0684 H   0  0  0  0  0  0  0  0  0  0  0  0
    0.8603    2.7685   -0.0351 H   0  0  0  0  0  0  0  0  0  0  0  0
    3.2932    2.9195    0.1623 H   0  0  0  0  0  0  0  0  0  0  0  0
    1.1696   -1.5148    0.3035 H   0  0  0  0  0  0  0  0  0  0  0  0
    5.1711    0.5510    2.5375 H   0  0  0  0  0  0  0  0  0  0  0  0
    7.5551    0.7667    2.5479 H   0  0  0  0  0  0  0  0  0  0  0  0
    8.7847    1.3236    0.4568 H   0  0  0  0  0  0  0  0  0  0  0  0
    7.6016    1.6342   -1.5966 H   0  0  0  0  0  0  0  0  0  0  0  0
    5.1162    1.3952   -1.6175 H   0  0  0  0  0  0  0  0  0  0  0  0
  1  2  1  0
  2  3  1  0
  3  4  2  0
  4  5  1  0
  5  6  2  0
  6  7  1  0
  7  8  2  0
  8  9  1  0
  9 10  2  0
  9 11  1  0
 11 12  1  0
 12 13  2  0
 12 14  1  0
 14 15  1  0
 15 16  2  0
 16 17  1  0
 17 18  2  0
 18 19  1  0
 19 20  2  0
 19 21  1  0
 21 22  1  0
 21 23  1  0
 21 24  1  0
 18 25  1  0
 25 26  2  0
 26 27  1  0
 27 28  2  0
 28 29  1  0
 29 30  2  0
  8  3  1  0
 20 15  1  0
 30 25  1  0
  1 31  1  0
  1 32  1  0
  1 33  1  0
  4 34  1  0
  5 35  1  0
  7 36  1  0
 11 37  1  0
 14 38  1  0
 16 39  1  0
 17 40  1  0
 20 41  1  0
 26 42  1  0
 27 43  1  0
 28 44  1  0
 29 45  1  0
 30 46  1  0
M  END
>  <Ligand ID>  (1) 
LIG0002003

>  <Ligand>  (1) 
S1P1 Agonist III

>  <SMILES>  (1) 
COc1ccncc1C(=O)NC(=O)Nc1ccc(c(c1)C(F)(F)F)c1ccccc1

>  <CID>  (1) 
54764919.0

>  <ChEMBL ID>  (1) 
nan

>  <InChiKey>  (1) 
MLDQTQOMWDNTNN-UHFFFAOYSA-N

>  <InChi>  (1) 
InChI=1S/C21H16F3N3O3/c1-30-18-9-10-25-12-16(18)19(28)27-20(29)26-14-7-8-15(13-5-3-2-4-6-13)17(11-14)21(22,23)24/h2-12H,1H3,(H2,26,27,28,29)

>  <IUPAC Name>  (1) 
4-methoxy-N-[[4-phenyl-3-(trifluoromethyl)phenyl]carbamoyl]pyridine-3-carboxamide

$$$$
