
     RDKit          3D

 42 44  0  0  0  0  0  0  0  0999 V2000
    0.9660   -2.6748    0.7665 O   0  0  0  0  0  0  0  0  0  0  0  0
    0.8065   -1.6020   -0.1173 C   0  0  2  0  0  0  0  0  0  0  0  0
    0.6653   -0.3386    0.6973 C   0  0  1  0  0  0  0  0  0  0  0  0
    1.6013    0.6888    0.1221 C   0  0  0  0  0  0  0  0  0  0  0  0
    2.9405    0.3066    0.2548 O   0  0  0  0  0  0  0  0  0  0  0  0
    3.9710    1.4698   -0.3949 P   0  0  0  0  0  0  0  0  0  0  0  0
    3.3434    2.0332   -1.6374 O   0  0  0  0  0  0  0  0  0  0  0  0
    5.4431    0.7259   -0.8378 O   0  0  0  0  0  0  0  0  0  0  0  0
    6.1161    0.0092    0.5496 P   0  0  0  0  0  0  0  0  0  0  0  0
    5.5366    0.6336    1.7905 O   0  0  0  0  0  0  0  0  0  0  0  0
    7.8100    0.1702    0.5540 O   0  0  0  0  0  0  0  0  0  0  0  0
    5.7918   -1.6644    0.4856 O   0  0  0  0  0  0  0  0  0  0  0  0
    4.2944    2.7007    0.7204 O   0  0  0  0  0  0  0  0  0  0  0  0
   -0.6350    0.1128    0.5271 O   0  0  0  0  0  0  0  0  0  0  0  0
   -1.4156   -1.0085    0.2566 C   0  0  2  0  0  0  0  0  0  0  0  0
   -0.5514   -1.6857   -0.7910 C   0  0  2  0  0  0  0  0  0  0  0  0
   -0.9329   -3.0008   -1.0319 O   0  0  0  0  0  0  0  0  0  0  0  0
   -2.7015   -0.6355   -0.2395 N   0  0  0  0  0  0  0  0  0  0  0  0
   -3.3531   -1.0627   -1.3575 C   0  0  0  0  0  0  0  0  0  0  0  0
   -4.5476   -0.4545   -1.4502 N   0  0  0  0  0  0  0  0  0  0  0  0
   -4.6905    0.3654   -0.4103 C   0  0  0  0  0  0  0  0  0  0  0  0
   -3.5314    0.2422    0.3364 C   0  0  0  0  0  0  0  0  0  0  0  0
   -3.4209    0.9770    1.4577 N   0  0  0  0  0  0  0  0  0  0  0  0
   -4.3794    1.8268    1.8922 C   0  0  0  0  0  0  0  0  0  0  0  0
   -5.4939    1.9264    1.1477 N   0  0  0  0  0  0  0  0  0  0  0  0
   -5.6830    1.2278    0.0150 C   0  0  0  0  0  0  0  0  0  0  0  0
   -6.8831    1.3698   -0.7380 N   0  0  0  0  0  0  0  0  0  0  0  0
    0.7774   -2.4033    1.7053 H   0  0  0  0  0  0  0  0  0  0  0  0
    1.6342   -1.5442   -0.8485 H   0  0  0  0  0  0  0  0  0  0  0  0
    0.8281   -0.5331    1.7610 H   0  0  0  0  0  0  0  0  0  0  0  0
    1.4713    1.6779    0.6192 H   0  0  0  0  0  0  0  0  0  0  0  0
    1.3266    0.8492   -0.9408 H   0  0  0  0  0  0  0  0  0  0  0  0
    8.1059    1.0991    0.6515 H   0  0  0  0  0  0  0  0  0  0  0  0
    5.7905   -1.9287   -0.4808 H   0  0  0  0  0  0  0  0  0  0  0  0
    3.8197    2.4803    1.5558 H   0  0  0  0  0  0  0  0  0  0  0  0
   -1.4187   -1.6413    1.1596 H   0  0  0  0  0  0  0  0  0  0  0  0
   -0.5008   -1.0618   -1.7155 H   0  0  0  0  0  0  0  0  0  0  0  0
   -0.9744   -3.1038   -2.0271 H   0  0  0  0  0  0  0  0  0  0  0  0
   -2.9751   -1.7773   -2.0627 H   0  0  0  0  0  0  0  0  0  0  0  0
   -4.2441    2.4045    2.8121 H   0  0  0  0  0  0  0  0  0  0  0  0
   -7.6247    0.6190   -0.7038 H   0  0  0  0  0  0  0  0  0  0  0  0
   -7.0826    2.2051   -1.3466 H   0  0  0  0  0  0  0  0  0  0  0  0
  1  2  1  0
  2  3  1  0
  3  4  1  0
  4  5  1  0
  5  6  1  0
  6  7  2  0
  6  8  1  0
  8  9  1  0
  9 10  2  0
  9 11  1  0
  9 12  1  0
  6 13  1  0
  3 14  1  0
 14 15  1  0
 15 16  1  0
 16 17  1  0
 15 18  1  0
 18 19  1  0
 19 20  2  0
 20 21  1  0
 21 22  2  0
 22 23  1  0
 23 24  2  0
 24 25  1  0
 25 26  2  0
 26 27  1  0
 16  2  1  0
 22 18  1  0
 26 21  1  0
  1 28  1  0
  2 29  1  6
  3 30  1  1
  4 31  1  0
  4 32  1  0
 11 33  1  0
 12 34  1  0
 13 35  1  0
 15 36  1  1
 16 37  1  6
 17 38  1  0
 19 39  1  0
 24 40  1  0
 27 41  1  0
 27 42  1  0
M  END
>  <Ligand ID>  (1) 
LIG0001288

>  <Ligand>  (1) 
ADP

>  <SMILES>  (1) 
O[C@@H]1[C@@H](COP(=O)(OP(=O)(O)O)O)O[C@H]([C@@H]1O)n1cnc2c1ncnc2N

>  <CID>  (1) 
6022.0

>  <ChEMBL ID>  (1) 
nan

>  <InChiKey>  (1) 
XTWYTFMLZFPYCI-KQYNXXCUSA-N

>  <InChi>  (1) 
InChI=1S/C10H15N5O10P2/c11-8-5-9(13-2-12-8)15(3-14-5)10-7(17)6(16)4(24-10)1-23-27(21,22)25-26(18,19)20/h2-4,6-7,10,16-17H,1H2,(H,21,22)(H2,11,12,13)(H2,18,19,20)/t4-,6-,7-,10-/m1/s1

>  <IUPAC Name>  (1) 
[(2R,3S,4R,5R)-5-(6-aminopurin-9-yl)-3,4-dihydroxyoxolan-2-yl]methyl phosphono hydrogen phosphate

$$$$
