
     RDKit          3D

 60 63  0  0  0  0  0  0  0  0999 V2000
    3.6361    0.6660    0.0274 O   0  0  0  0  0  0  0  0  0  0  0  0
    3.1055   -0.4589    0.1672 C   0  0  0  0  0  0  0  0  0  0  0  0
    1.6391   -0.4745    0.3105 C   0  0  0  0  0  0  0  0  0  0  0  0
    0.9252   -1.6419    0.4710 C   0  0  0  0  0  0  0  0  0  0  0  0
   -0.4608   -1.6261    0.6041 C   0  0  0  0  0  0  0  0  0  0  0  0
   -1.1520   -0.4402    0.5782 C   0  0  0  0  0  0  0  0  0  0  0  0
   -0.4574    0.7524    0.4175 C   0  0  0  0  0  0  0  0  0  0  0  0
    0.9112    0.6963    0.2895 C   0  0  0  0  0  0  0  0  0  0  0  0
   -1.3785    2.2188    0.3994 S   0  0  0  0  0  0  0  0  0  0  0  0
   -2.0430    2.3517    1.7376 O   0  0  0  0  0  0  0  0  0  0  0  0
   -2.3846    2.2219   -0.7177 O   0  0  0  0  0  0  0  0  0  0  0  0
   -0.3480    3.5618    0.1539 N   0  0  0  0  0  0  0  0  0  0  0  0
    0.3450    3.5179   -1.1088 C   0  0  0  0  0  0  0  0  0  0  0  0
   -0.1644    4.5856   -2.0631 C   0  0  0  0  0  0  0  0  0  0  0  0
    0.0239    5.8666   -1.5543 O   0  0  0  0  0  0  0  0  0  0  0  0
   -0.1019    5.9100   -0.1724 C   0  0  0  0  0  0  0  0  0  0  0  0
   -1.0301    4.8257    0.3336 C   0  0  0  0  0  0  0  0  0  0  0  0
   -2.5646   -0.4195    0.7112 N   0  0  0  0  0  0  0  0  0  0  0  0
   -3.3678   -1.6004    0.8677 C   0  0  0  0  0  0  0  0  0  0  0  0
   -3.2654   -2.5366   -0.3219 C   0  0  0  0  0  0  0  0  0  0  0  0
   -4.5852   -2.6231   -1.0717 C   0  0  0  0  0  0  0  0  0  0  0  0
   -5.6528   -3.2159   -0.1694 C   0  0  0  0  0  0  0  0  0  0  0  0
   -5.5811   -2.5970    1.2111 C   0  0  0  0  0  0  0  0  0  0  0  0
   -4.8185   -1.2892    1.1004 C   0  0  0  0  0  0  0  0  0  0  0  0
    3.8966   -1.6219    0.1819 N   0  0  0  0  0  0  0  0  0  0  0  0
    5.2927   -1.7077    0.0533 C   0  0  0  0  0  0  0  0  0  0  0  0
    5.8884   -2.9753    0.0951 C   0  0  0  0  0  0  0  0  0  0  0  0
    7.2479   -3.1517   -0.0227 C   0  0  0  0  0  0  0  0  0  0  0  0
    8.0906   -2.0812   -0.1884 C   0  0  0  0  0  0  0  0  0  0  0  0
    7.5367   -0.8334   -0.2327 C   0  0  0  0  0  0  0  0  0  0  0  0
    6.1604   -0.6573   -0.1132 C   0  0  0  0  0  0  0  0  0  0  0  0
    1.3939   -2.6091    0.5012 H   0  0  0  0  0  0  0  0  0  0  0  0
   -0.9833   -2.5428    0.7287 H   0  0  0  0  0  0  0  0  0  0  0  0
    1.4679    1.6124    0.1691 H   0  0  0  0  0  0  0  0  0  0  0  0
    1.4169    3.7248   -0.9266 H   0  0  0  0  0  0  0  0  0  0  0  0
    0.1833    2.5467   -1.6032 H   0  0  0  0  0  0  0  0  0  0  0  0
   -1.2191    4.3866   -2.3547 H   0  0  0  0  0  0  0  0  0  0  0  0
    0.4543    4.5063   -2.9807 H   0  0  0  0  0  0  0  0  0  0  0  0
    0.9027    5.6520    0.2434 H   0  0  0  0  0  0  0  0  0  0  0  0
   -0.4171    6.9046    0.1622 H   0  0  0  0  0  0  0  0  0  0  0  0
   -1.9941    4.7899   -0.1788 H   0  0  0  0  0  0  0  0  0  0  0  0
   -1.1501    4.9623    1.4257 H   0  0  0  0  0  0  0  0  0  0  0  0
   -3.0775    0.5008    0.6979 H   0  0  0  0  0  0  0  0  0  0  0  0
   -2.9887   -2.1308    1.7741 H   0  0  0  0  0  0  0  0  0  0  0  0
   -3.0345   -3.5499    0.0247 H   0  0  0  0  0  0  0  0  0  0  0  0
   -2.5194   -2.1429   -1.0588 H   0  0  0  0  0  0  0  0  0  0  0  0
   -4.4354   -3.3212   -1.8967 H   0  0  0  0  0  0  0  0  0  0  0  0
   -4.8933   -1.6484   -1.5025 H   0  0  0  0  0  0  0  0  0  0  0  0
   -6.6219   -3.0568   -0.6404 H   0  0  0  0  0  0  0  0  0  0  0  0
   -5.4541   -4.3082   -0.1246 H   0  0  0  0  0  0  0  0  0  0  0  0
   -5.0436   -3.2663    1.8987 H   0  0  0  0  0  0  0  0  0  0  0  0
   -6.5971   -2.4309    1.6313 H   0  0  0  0  0  0  0  0  0  0  0  0
   -5.2383   -0.6983    0.2681 H   0  0  0  0  0  0  0  0  0  0  0  0
   -4.9676   -0.6844    2.0249 H   0  0  0  0  0  0  0  0  0  0  0  0
    3.3722   -2.5351    0.3044 H   0  0  0  0  0  0  0  0  0  0  0  0
    5.2856   -3.8776    0.2244 H   0  0  0  0  0  0  0  0  0  0  0  0
    7.6553   -4.1507    0.0162 H   0  0  0  0  0  0  0  0  0  0  0  0
    9.1565   -2.2010   -0.2823 H   0  0  0  0  0  0  0  0  0  0  0  0
    8.1949    0.0073   -0.3625 H   0  0  0  0  0  0  0  0  0  0  0  0
    5.8083    0.3376   -0.1572 H   0  0  0  0  0  0  0  0  0  0  0  0
  1  2  2  0
  2  3  1  0
  3  4  2  0
  4  5  1  0
  5  6  2  0
  6  7  1  0
  7  8  2  0
  7  9  1  0
  9 10  2  0
  9 11  2  0
  9 12  1  0
 12 13  1  0
 13 14  1  0
 14 15  1  0
 15 16  1  0
 16 17  1  0
  6 18  1  0
 18 19  1  0
 19 20  1  0
 20 21  1  0
 21 22  1  0
 22 23  1  0
 23 24  1  0
  2 25  1  0
 25 26  1  0
 26 27  2  0
 27 28  1  0
 28 29  2  0
 29 30  1  0
 30 31  2  0
  8  3  1  0
 17 12  1  0
 24 19  1  0
 31 26  1  0
  4 32  1  0
  5 33  1  0
  8 34  1  0
 13 35  1  0
 13 36  1  0
 14 37  1  0
 14 38  1  0
 16 39  1  0
 16 40  1  0
 17 41  1  0
 17 42  1  0
 18 43  1  0
 19 44  1  0
 20 45  1  0
 20 46  1  0
 21 47  1  0
 21 48  1  0
 22 49  1  0
 22 50  1  0
 23 51  1  0
 23 52  1  0
 24 53  1  0
 24 54  1  0
 25 55  1  0
 27 56  1  0
 28 57  1  0
 29 58  1  0
 30 59  1  0
 31 60  1  0
M  END
>  <Ligand ID>  (1) 
LIG0003066

>  <Ligand>  (1) 
MLS000530903

>  <SMILES>  (1) 
O=C(c1ccc(c(c1)S(=O)(=O)N1CCOCC1)NC1CCCCC1)Nc1ccccc1

>  <CID>  (1) 
2953765.0

>  <ChEMBL ID>  (1) 
nan

>  <InChiKey>  (1) 
XBRZHHNKOHWQPI-UHFFFAOYSA-N

>  <InChi>  (1) 
InChI=1S/C23H29N3O4S/c27-23(25-20-9-5-2-6-10-20)18-11-12-21(24-19-7-3-1-4-8-19)22(17-18)31(28,29)26-13-15-30-16-14-26/h2,5-6,9-12,17,19,24H,1,3-4,7-8,13-16H2,(H,25,27)

>  <IUPAC Name>  (1) 
4-(cyclohexylamino)-3-morpholin-4-ylsulfonyl-N-phenylbenzamide

$$$$
