
     RDKit          3D

 27 27  0  0  0  0  0  0  0  0999 V2000
    3.2431    1.4097   -0.7968 N   0  0  0  0  0  0  0  0  0  0  0  0
    2.9853    0.6164    0.3899 C   0  0  0  0  0  0  0  0  0  0  0  0
    1.7514   -0.2486    0.1900 C   0  0  1  0  0  0  0  0  0  0  0  0
    1.4054   -1.1081    1.3712 C   0  0  0  0  0  0  0  0  0  0  0  0
    0.5630    0.0350    1.0162 C   0  0  2  0  0  0  0  0  0  0  0  0
   -0.8150   -0.2127    0.4582 C   0  0  0  0  0  0  0  0  0  0  0  0
   -1.0441   -1.3222   -0.3590 C   0  0  0  0  0  0  0  0  0  0  0  0
   -2.3123   -1.5718   -0.8873 C   0  0  0  0  0  0  0  0  0  0  0  0
   -3.3181   -0.6774   -0.5656 C   0  0  0  0  0  0  0  0  0  0  0  0
   -3.1190    0.4241    0.2376 C   0  0  0  0  0  0  0  0  0  0  0  0
   -1.8633    0.6658    0.7571 C   0  0  0  0  0  0  0  0  0  0  0  0
   -4.1261    1.3243    0.5630 O   0  0  0  0  0  0  0  0  0  0  0  0
    0.6868    0.0000    0.0000 Cl  0  0  0  0  0  0  0  0  0  0  0  0
    3.0084    2.4251   -0.6762 H   0  0  0  0  0  0  0  0  0  0  0  0
    4.2282    1.2498   -1.0800 H   0  0  0  0  0  0  0  0  0  0  0  0
    3.8712    0.0410    0.7246 H   0  0  0  0  0  0  0  0  0  0  0  0
    2.7706    1.3504    1.2186 H   0  0  0  0  0  0  0  0  0  0  0  0
    1.6960   -0.6606   -0.8410 H   0  0  0  0  0  0  0  0  0  0  0  0
    2.0200   -1.0286    2.3082 H   0  0  0  0  0  0  0  0  0  0  0  0
    1.1350   -2.1555    1.1581 H   0  0  0  0  0  0  0  0  0  0  0  0
    0.6351    0.9457    1.6541 H   0  0  0  0  0  0  0  0  0  0  0  0
   -0.2410   -2.0031   -0.5933 H   0  0  0  0  0  0  0  0  0  0  0  0
   -2.4800   -2.4415   -1.5246 H   0  0  0  0  0  0  0  0  0  0  0  0
   -4.2945   -0.8609   -0.9665 H   0  0  0  0  0  0  0  0  0  0  0  0
   -1.6542    1.5066    1.3865 H   0  0  0  0  0  0  0  0  0  0  0  0
   -4.0451    2.2970    0.2439 H   0  0  0  0  0  0  0  0  0  0  0  0
   -0.6868    0.0000    0.0000 H   0  0  0  0  0  0  0  0  0  0  0  0
  1  2  1  0
  2  3  1  0
  3  4  1  0
  4  5  1  0
  5  6  1  0
  6  7  2  0
  7  8  1  0
  8  9  2  0
  9 10  1  0
 10 11  2  0
 10 12  1  0
  5  3  1  0
 11  6  1  0
  1 14  1  0
  1 15  1  0
  2 16  1  0
  2 17  1  0
  3 18  1  6
  4 19  1  0
  4 20  1  0
  5 21  1  1
  7 22  1  0
  8 23  1  0
  9 24  1  0
 11 25  1  0
 12 26  1  0
 13 27  1  0
M  END
>  <Ligand ID>  (1) 
LIG0002379

>  <Ligand>  (1) 
CHEMBL510383

>  <SMILES>  (1) 
NC[C@H]1C[C@@H]1c1cccc(c1)O.Cl

>  <CID>  (1) 
44572807.0

>  <ChEMBL ID>  (1) 
nan

>  <InChiKey>  (1) 
LHXCXWVHXOBEJM-GHXDPTCOSA-N

>  <InChi>  (1) 
InChI=1S/C10H13NO.ClH/c11-6-8-5-10(8)7-2-1-3-9(12)4-7;/h1-4,8,10,12H,5-6,11H2;1H/t8-,10-;/m1./s1

>  <IUPAC Name>  (1) 
3-[(1S,2S)-2-(aminomethyl)cyclopropyl]phenol;hydrochloride

$$$$
