
     RDKit          3D

 62 65  0  0  0  0  0  0  0  0999 V2000
   -1.5943   -4.8983   -0.9811 C   0  0  0  0  0  0  0  0  0  0  0  0
   -1.0818   -4.7063    0.4054 C   0  0  0  0  0  0  0  0  0  0  0  0
   -1.5591   -3.5142    0.9964 O   0  0  0  0  0  0  0  0  0  0  0  0
   -1.2250   -2.3237    0.3319 C   0  0  0  0  0  0  0  0  0  0  0  0
   -0.5392   -2.4510   -0.7139 O   0  0  0  0  0  0  0  0  0  0  0  0
   -1.6760   -1.0155    0.8684 C   0  0  0  0  0  0  0  0  0  0  0  0
   -3.1851   -0.9593    0.9218 C   0  0  0  0  0  0  0  0  0  0  0  0
   -3.8317   -1.1353   -0.4096 C   0  0  0  0  0  0  0  0  0  0  0  0
   -3.5168   -0.1927   -1.3518 O   0  0  0  0  0  0  0  0  0  0  0  0
   -3.7701    1.1378   -1.3777 C   0  0  0  0  0  0  0  0  0  0  0  0
   -3.2838    1.8439   -2.4920 C   0  0  0  0  0  0  0  0  0  0  0  0
   -3.4755    3.1957   -2.6394 C   0  0  0  0  0  0  0  0  0  0  0  0
   -4.1550    3.9135   -1.6958 C   0  0  0  0  0  0  0  0  0  0  0  0
   -4.6478    3.2625   -0.5904 C   0  0  0  0  0  0  0  0  0  0  0  0
   -4.4437    1.8846   -0.4564 C   0  0  0  0  0  0  0  0  0  0  0  0
   -1.1611   -0.8823    2.2935 C   0  0  0  0  0  0  0  0  0  0  0  0
   -0.5465    0.4552    2.5424 C   0  0  0  0  0  0  0  0  0  0  0  0
    0.5417    0.7679    1.6440 N   0  0  0  0  0  0  0  0  0  0  0  0
    0.4026    0.1084    0.3629 C   0  0  0  0  0  0  0  0  0  0  0  0
   -1.0825    0.0889    0.0374 C   0  0  0  0  0  0  0  0  0  0  0  0
    1.8448    0.6783    2.2197 C   0  0  0  0  0  0  0  0  0  0  0  0
    2.8561    1.0237    1.2076 C   0  0  0  0  0  0  0  0  0  0  0  0
    3.2459    2.3618    1.0717 C   0  0  0  0  0  0  0  0  0  0  0  0
    4.1974    2.7336    0.1312 C   0  0  0  0  0  0  0  0  0  0  0  0
    4.7956    1.8248   -0.7003 C   0  0  0  0  0  0  0  0  0  0  0  0
    4.4163    0.5017   -0.5725 C   0  0  0  0  0  0  0  0  0  0  0  0
    3.4668    0.1327    0.3665 C   0  0  0  0  0  0  0  0  0  0  0  0
    5.0169   -0.4139   -1.4081 O   0  0  0  0  0  0  0  0  0  0  0  0
    6.2840   -0.2344   -1.9959 C   0  0  0  0  0  0  0  0  0  0  0  0
    6.7355    1.1861   -2.0706 C   0  0  0  0  0  0  0  0  0  0  0  0
    5.7427    2.1243   -1.6514 O   0  0  0  0  0  0  0  0  0  0  0  0
   -2.2843   -4.0704   -1.2400 H   0  0  0  0  0  0  0  0  0  0  0  0
   -2.1732   -5.8283   -1.1201 H   0  0  0  0  0  0  0  0  0  0  0  0
   -0.7782   -4.9420   -1.7597 H   0  0  0  0  0  0  0  0  0  0  0  0
   -1.2585   -5.5776    1.0762 H   0  0  0  0  0  0  0  0  0  0  0  0
    0.0329   -4.5723    0.3216 H   0  0  0  0  0  0  0  0  0  0  0  0
   -3.4959   -0.0450    1.4425 H   0  0  0  0  0  0  0  0  0  0  0  0
   -3.5373   -1.8069    1.5930 H   0  0  0  0  0  0  0  0  0  0  0  0
   -4.9629   -1.0838   -0.2666 H   0  0  0  0  0  0  0  0  0  0  0  0
   -3.7020   -2.1867   -0.7940 H   0  0  0  0  0  0  0  0  0  0  0  0
   -2.7364    1.3361   -3.2775 H   0  0  0  0  0  0  0  0  0  0  0  0
   -3.0971    3.7378   -3.5039 H   0  0  0  0  0  0  0  0  0  0  0  0
   -4.3382    4.9784   -1.7543 H   0  0  0  0  0  0  0  0  0  0  0  0
   -5.1995    3.8119    0.1879 H   0  0  0  0  0  0  0  0  0  0  0  0
   -4.8725    1.4450    0.4243 H   0  0  0  0  0  0  0  0  0  0  0  0
   -0.4418   -1.7098    2.5237 H   0  0  0  0  0  0  0  0  0  0  0  0
   -1.9852   -1.0029    3.0260 H   0  0  0  0  0  0  0  0  0  0  0  0
   -1.3513    1.2260    2.4531 H   0  0  0  0  0  0  0  0  0  0  0  0
   -0.1904    0.5050    3.5734 H   0  0  0  0  0  0  0  0  0  0  0  0
    0.9396    0.6834   -0.4188 H   0  0  0  0  0  0  0  0  0  0  0  0
    0.8175   -0.9070    0.3806 H   0  0  0  0  0  0  0  0  0  0  0  0
   -1.4754    1.0892    0.3370 H   0  0  0  0  0  0  0  0  0  0  0  0
   -1.1864   -0.0927   -1.0352 H   0  0  0  0  0  0  0  0  0  0  0  0
    1.8896    1.4581    3.0322 H   0  0  0  0  0  0  0  0  0  0  0  0
    2.0574   -0.2870    2.7249 H   0  0  0  0  0  0  0  0  0  0  0  0
    2.8179    3.1352    1.6926 H   0  0  0  0  0  0  0  0  0  0  0  0
    4.4939    3.7730    0.0324 H   0  0  0  0  0  0  0  0  0  0  0  0
    3.2107   -0.8946    0.4262 H   0  0  0  0  0  0  0  0  0  0  0  0
    7.0067   -0.8090   -1.3531 H   0  0  0  0  0  0  0  0  0  0  0  0
    6.2987   -0.6708   -3.0260 H   0  0  0  0  0  0  0  0  0  0  0  0
    7.6089    1.3668   -1.3817 H   0  0  0  0  0  0  0  0  0  0  0  0
    7.1214    1.4425   -3.0751 H   0  0  0  0  0  0  0  0  0  0  0  0
  1  2  1  0
  2  3  1  0
  3  4  1  0
  4  5  2  0
  4  6  1  0
  6  7  1  0
  7  8  1  0
  8  9  1  0
  9 10  1  0
 10 11  2  0
 11 12  1  0
 12 13  2  0
 13 14  1  0
 14 15  2  0
  6 16  1  0
 16 17  1  0
 17 18  1  0
 18 19  1  0
 19 20  1  0
 18 21  1  0
 21 22  1  0
 22 23  2  0
 23 24  1  0
 24 25  2  0
 25 26  1  0
 26 27  2  0
 26 28  1  0
 28 29  1  0
 29 30  1  0
 30 31  1  0
 20  6  1  0
 27 22  1  0
 15 10  1  0
 31 25  1  0
  1 32  1  0
  1 33  1  0
  1 34  1  0
  2 35  1  0
  2 36  1  0
  7 37  1  0
  7 38  1  0
  8 39  1  0
  8 40  1  0
 11 41  1  0
 12 42  1  0
 13 43  1  0
 14 44  1  0
 15 45  1  0
 16 46  1  0
 16 47  1  0
 17 48  1  0
 17 49  1  0
 19 50  1  0
 19 51  1  0
 20 52  1  0
 20 53  1  0
 21 54  1  0
 21 55  1  0
 23 56  1  0
 24 57  1  0
 27 58  1  0
 29 59  1  0
 29 60  1  0
 30 61  1  0
 30 62  1  0
M  END
>  <Ligand ID>  (1) 
LIG0004438

>  <Ligand>  (1) 
MLS000735086

>  <SMILES>  (1) 
CCOC(=O)C1(CCOc2ccccc2)CCN(CC1)Cc1ccc2c(c1)OCCO2

>  <CID>  (1) 
16188675.0

>  <ChEMBL ID>  (1) 
nan

>  <InChiKey>  (1) 
SCDIWFUXVDYCEM-UHFFFAOYSA-N

>  <InChi>  (1) 
InChI=1S/C25H31NO5/c1-2-28-24(27)25(12-15-29-21-6-4-3-5-7-21)10-13-26(14-11-25)19-20-8-9-22-23(18-20)31-17-16-30-22/h3-9,18H,2,10-17,19H2,1H3

>  <IUPAC Name>  (1) 
ethyl 1-(2,3-dihydro-1,4-benzodioxin-6-ylmethyl)-4-(2-phenoxyethyl)piperidine-4-carboxylate

$$$$
