
     RDKit          3D

 41 42  0  0  0  0  0  0  0  0999 V2000
   -4.0103    0.8723    1.4990 C   0  0  0  0  0  0  0  0  0  0  0  0
   -3.4904    1.5223    0.2341 C   0  0  0  0  0  0  0  0  0  0  0  0
   -3.4939    0.5198   -0.8912 C   0  0  0  0  0  0  0  0  0  0  0  0
   -2.6926   -0.6102   -0.6443 O   0  0  0  0  0  0  0  0  0  0  0  0
   -1.3153   -0.5056   -0.4181 C   0  0  0  0  0  0  0  0  0  0  0  0
   -0.8419    0.6301   -0.4474 O   0  0  0  0  0  0  0  0  0  0  0  0
   -0.6046   -1.7485   -0.1751 C   0  0  0  0  0  0  0  0  0  0  0  0
   -1.2870   -2.9469   -0.1757 C   0  0  0  0  0  0  0  0  0  0  0  0
   -0.7079   -4.1725    0.0430 C   0  0  0  0  0  0  0  0  0  0  0  0
    0.6408   -4.2256    0.2798 C   0  0  0  0  0  0  0  0  0  0  0  0
    1.3319   -3.0364    0.2829 C   0  0  0  0  0  0  0  0  0  0  0  0
    0.7510   -1.8048    0.0633 C   0  0  0  0  0  0  0  0  0  0  0  0
    1.5674   -0.6508    0.0913 N   0  0  0  0  0  0  0  0  0  0  0  0
    3.0002   -0.8283    0.3546 C   0  0  0  0  0  0  0  0  0  0  0  0
    3.7350    0.4498    0.3565 C   0  0  0  0  0  0  0  0  0  0  0  0
    4.4058    0.9504    1.3308 N   0  0  0  0  0  0  0  0  0  0  0  0
    4.9850    2.2041    0.9727 C   0  0  0  0  0  0  0  0  0  0  0  0
    4.5803    2.4878   -0.4503 C   0  0  0  0  0  0  0  0  0  0  0  0
    3.7936    1.3285   -0.7774 N   0  0  0  0  0  0  0  0  0  0  0  0
   -4.5383    2.5768   -0.1474 C   0  0  0  0  0  0  0  0  0  0  0  0
   -4.5913    1.5722    2.1283 H   0  0  0  0  0  0  0  0  0  0  0  0
   -3.1763    0.4367    2.1141 H   0  0  0  0  0  0  0  0  0  0  0  0
   -4.6483   -0.0038    1.2410 H   0  0  0  0  0  0  0  0  0  0  0  0
   -2.5194    1.9897    0.4214 H   0  0  0  0  0  0  0  0  0  0  0  0
   -3.2304    0.9725   -1.8638 H   0  0  0  0  0  0  0  0  0  0  0  0
   -4.5259    0.1349   -1.0128 H   0  0  0  0  0  0  0  0  0  0  0  0
   -2.3736   -2.9672   -0.3603 H   0  0  0  0  0  0  0  0  0  0  0  0
   -1.2868   -5.0864    0.0325 H   0  0  0  0  0  0  0  0  0  0  0  0
    1.1452   -5.1681    0.4582 H   0  0  0  0  0  0  0  0  0  0  0  0
    2.4123   -3.1239    0.4769 H   0  0  0  0  0  0  0  0  0  0  0  0
    1.2714    0.3255   -0.0545 H   0  0  0  0  0  0  0  0  0  0  0  0
    3.4467   -1.5027   -0.4196 H   0  0  0  0  0  0  0  0  0  0  0  0
    3.1337   -1.3486    1.3106 H   0  0  0  0  0  0  0  0  0  0  0  0
    4.6162    2.9898    1.6838 H   0  0  0  0  0  0  0  0  0  0  0  0
    6.0896    2.1271    1.0992 H   0  0  0  0  0  0  0  0  0  0  0  0
    3.9963    3.4442   -0.4541 H   0  0  0  0  0  0  0  0  0  0  0  0
    5.4984    2.6017   -1.0608 H   0  0  0  0  0  0  0  0  0  0  0  0
    3.3461    1.1903   -1.7252 H   0  0  0  0  0  0  0  0  0  0  0  0
   -4.9668    3.0152    0.7999 H   0  0  0  0  0  0  0  0  0  0  0  0
   -5.3656    2.0398   -0.6461 H   0  0  0  0  0  0  0  0  0  0  0  0
   -4.0803    3.3487   -0.7885 H   0  0  0  0  0  0  0  0  0  0  0  0
  1  2  1  0
  2  3  1  0
  3  4  1  0
  4  5  1  0
  5  6  2  0
  5  7  1  0
  7  8  2  0
  8  9  1  0
  9 10  2  0
 10 11  1  0
 11 12  2  0
 12 13  1  0
 13 14  1  0
 14 15  1  0
 15 16  2  0
 16 17  1  0
 17 18  1  0
 18 19  1  0
  2 20  1  0
 12  7  1  0
 19 15  1  0
  1 21  1  0
  1 22  1  0
  1 23  1  0
  2 24  1  0
  3 25  1  0
  3 26  1  0
  8 27  1  0
  9 28  1  0
 10 29  1  0
 11 30  1  0
 13 31  1  0
 14 32  1  0
 14 33  1  0
 17 34  1  0
 17 35  1  0
 18 36  1  0
 18 37  1  0
 19 38  1  0
 20 39  1  0
 20 40  1  0
 20 41  1  0
M  END
>  <Ligand ID>  (1) 
LIG0003471

>  <Ligand>  (1) 
CHEMBL95398

>  <SMILES>  (1) 
CC(COC(=O)c1ccccc1NCC1=NCCN1)C

>  <CID>  (1) 
44329701.0

>  <ChEMBL ID>  (1) 
nan

>  <InChiKey>  (1) 
CBLUHSHTFYFAED-UHFFFAOYSA-N

>  <InChi>  (1) 
InChI=1S/C15H21N3O2/c1-11(2)10-20-15(19)12-5-3-4-6-13(12)18-9-14-16-7-8-17-14/h3-6,11,18H,7-10H2,1-2H3,(H,16,17)

>  <IUPAC Name>  (1) 
2-methylpropyl 2-(4,5-dihydro-1H-imidazol-2-ylmethylamino)benzoate

$$$$
