
     RDKit          3D

 24 25  0  0  0  0  0  0  0  0999 V2000
   -3.3971    1.2395   -0.2279 N   0  0  0  0  0  0  0  0  0  0  0  0
   -2.9796   -0.1509   -0.2585 C   0  0  0  0  0  0  0  0  0  0  0  0
   -1.6217   -0.3077    0.3917 C   0  0  1  0  0  0  0  0  0  0  0  0
   -1.0046   -1.6471    0.4694 C   0  0  0  0  0  0  0  0  0  0  0  0
   -0.4772   -0.6318   -0.5141 C   0  0  2  0  0  0  0  0  0  0  0  0
    0.8862   -0.1484   -0.2325 C   0  0  0  0  0  0  0  0  0  0  0  0
    1.7690    0.0294   -1.3025 C   0  0  0  0  0  0  0  0  0  0  0  0
    3.0597    0.4781   -1.1174 C   0  0  0  0  0  0  0  0  0  0  0  0
    3.4743    0.7559    0.1805 C   0  0  0  0  0  0  0  0  0  0  0  0
    2.6108    0.5861    1.2650 C   0  0  0  0  0  0  0  0  0  0  0  0
    1.3174    0.1349    1.0662 C   0  0  0  0  0  0  0  0  0  0  0  0
    3.0010    0.8529    2.5371 F   0  0  0  0  0  0  0  0  0  0  0  0
   -3.4057    1.5919    0.7576 H   0  0  0  0  0  0  0  0  0  0  0  0
   -2.8485    1.8324   -0.8649 H   0  0  0  0  0  0  0  0  0  0  0  0
   -2.9735   -0.4592   -1.3209 H   0  0  0  0  0  0  0  0  0  0  0  0
   -3.7217   -0.7539    0.2933 H   0  0  0  0  0  0  0  0  0  0  0  0
   -1.4518    0.3775    1.2466 H   0  0  0  0  0  0  0  0  0  0  0  0
   -0.3525   -1.9355    1.3284 H   0  0  0  0  0  0  0  0  0  0  0  0
   -1.4717   -2.5408    0.0057 H   0  0  0  0  0  0  0  0  0  0  0  0
   -0.6633   -0.8098   -1.5905 H   0  0  0  0  0  0  0  0  0  0  0  0
    1.4613   -0.1836   -2.3297 H   0  0  0  0  0  0  0  0  0  0  0  0
    3.7045    0.6000   -1.9732 H   0  0  0  0  0  0  0  0  0  0  0  0
    4.4823    1.1086    0.3457 H   0  0  0  0  0  0  0  0  0  0  0  0
    0.6024   -0.0186    1.8449 H   0  0  0  0  0  0  0  0  0  0  0  0
  1  2  1  0
  2  3  1  0
  3  4  1  0
  4  5  1  0
  5  6  1  0
  6  7  2  0
  7  8  1  0
  8  9  2  0
  9 10  1  0
 10 11  2  0
 10 12  1  0
  5  3  1  0
 11  6  1  0
  1 13  1  0
  1 14  1  0
  2 15  1  0
  2 16  1  0
  3 17  1  1
  4 18  1  0
  4 19  1  0
  5 20  1  6
  7 21  1  0
  8 22  1  0
  9 23  1  0
 11 24  1  0
M  END
>  <Ligand ID>  (1) 
LIG0002376

>  <Ligand>  (1) 
CHEMBL492926

>  <SMILES>  (1) 
NC[C@H]1C[C@@H]1c1cccc(c1)F

>  <CID>  (1) 
44572798.0

>  <ChEMBL ID>  (1) 
nan

>  <InChiKey>  (1) 
ASHHTAGUESNAIP-PSASIEDQSA-N

>  <InChi>  (1) 
InChI=1S/C10H12FN/c11-9-3-1-2-7(4-9)10-5-8(10)6-12/h1-4,8,10H,5-6,12H2/t8-,10-/m1/s1

>  <IUPAC Name>  (1) 
[(1S,2S)-2-(3-fluorophenyl)cyclopropyl]methanamine

$$$$
