
     RDKit          3D

 31 30  0  0  0  0  0  0  0  0999 V2000
   -1.6056    2.1670    0.2682 O   0  0  0  0  0  0  0  0  0  0  0  0
   -2.7052    1.3923    0.0917 C   0  0  0  0  0  0  0  0  0  0  0  0
   -2.6366   -0.0530    0.3902 C   0  0  0  0  0  0  0  0  0  0  0  0
   -1.8194   -1.0183   -0.3020 C   0  0  1  0  0  0  0  0  0  0  0  0
   -0.3647   -1.0401   -0.3913 C   0  0  0  0  0  0  0  0  0  0  0  0
    0.3804    0.0733   -1.0375 C   0  0  0  0  0  0  0  0  0  0  0  0
    1.8833   -0.2925   -1.0576 C   0  0  0  0  0  0  0  0  0  0  0  0
    2.7635    0.4724   -0.4475 C   0  0  0  0  0  0  0  0  0  0  0  0
    4.1942    0.0796   -0.4950 C   0  0  0  0  0  0  0  0  0  0  0  0
    2.3104    1.6934    0.2639 C   0  0  0  0  0  0  0  0  0  0  0  0
   -2.2009   -2.4461    0.2531 C   0  0  0  0  0  0  0  0  0  0  0  0
   -1.4562    2.8287   -0.4516 H   0  0  0  0  0  0  0  0  0  0  0  0
   -3.0177    1.4920   -1.0058 H   0  0  0  0  0  0  0  0  0  0  0  0
   -3.5872    1.8525    0.6655 H   0  0  0  0  0  0  0  0  0  0  0  0
   -2.4185   -0.1515    1.5350 H   0  0  0  0  0  0  0  0  0  0  0  0
   -3.7262   -0.4630    0.3954 H   0  0  0  0  0  0  0  0  0  0  0  0
   -2.2481   -1.1460   -1.3955 H   0  0  0  0  0  0  0  0  0  0  0  0
    0.0568   -1.1537    0.6744 H   0  0  0  0  0  0  0  0  0  0  0  0
    0.0024   -1.9958   -0.9147 H   0  0  0  0  0  0  0  0  0  0  0  0
    0.3346    1.0206   -0.4833 H   0  0  0  0  0  0  0  0  0  0  0  0
    0.1080    0.2382   -2.0921 H   0  0  0  0  0  0  0  0  0  0  0  0
    2.1605   -1.1950   -1.5918 H   0  0  0  0  0  0  0  0  0  0  0  0
    4.8861    0.9311   -0.3870 H   0  0  0  0  0  0  0  0  0  0  0  0
    4.4042   -0.4344   -1.4780 H   0  0  0  0  0  0  0  0  0  0  0  0
    4.4531   -0.6961    0.2811 H   0  0  0  0  0  0  0  0  0  0  0  0
    1.8108    2.4260   -0.3958 H   0  0  0  0  0  0  0  0  0  0  0  0
    3.2018    2.2002    0.6926 H   0  0  0  0  0  0  0  0  0  0  0  0
    1.6868    1.4118    1.1569 H   0  0  0  0  0  0  0  0  0  0  0  0
   -1.5864   -3.1662   -0.2811 H   0  0  0  0  0  0  0  0  0  0  0  0
   -1.9858   -2.4680    1.3356 H   0  0  0  0  0  0  0  0  0  0  0  0
   -3.2784   -2.5592    0.0966 H   0  0  0  0  0  0  0  0  0  0  0  0
  1  2  1  0
  2  3  1  0
  3  4  1  0
  4  5  1  0
  5  6  1  0
  6  7  1  0
  7  8  2  3
  8  9  1  0
  8 10  1  0
  4 11  1  0
  1 12  1  0
  2 13  1  0
  2 14  1  0
  3 15  1  0
  3 16  1  0
  4 17  1  6
  5 18  1  0
  5 19  1  0
  6 20  1  0
  6 21  1  0
  7 22  1  0
  9 23  1  0
  9 24  1  0
  9 25  1  0
 10 26  1  0
 10 27  1  0
 10 28  1  0
 11 29  1  0
 11 30  1  0
 11 31  1  0
M  END
>  <Ligand ID>  (1) 
LIG0002101

>  <Ligand>  (1) 
(R)-(+)-citronellol

>  <SMILES>  (1) 
OCC[C@@H](CCC=C(C)C)C

>  <CID>  (1) 
101977.0

>  <ChEMBL ID>  (1) 
nan

>  <InChiKey>  (1) 
QMVPMAAFGQKVCJ-SNVBAGLBSA-N

>  <InChi>  (1) 
InChI=1S/C10H20O/c1-9(2)5-4-6-10(3)7-8-11/h5,10-11H,4,6-8H2,1-3H3/t10-/m1/s1

>  <IUPAC Name>  (1) 
(3R)-3,7-dimethyloct-6-en-1-ol

$$$$
