
     RDKit          3D

 61 65  0  0  0  0  0  0  0  0999 V2000
   -6.4161   -2.0061   -1.1798 C   0  0  0  0  0  0  0  0  0  0  0  0
   -7.0264   -1.4261    0.0916 C   0  0  2  0  0  0  0  0  0  0  0  0
   -8.4894   -1.1750   -0.0979 C   0  0  0  0  0  0  0  0  0  0  0  0
   -8.4998    0.1314   -0.8842 C   0  0  0  0  0  0  0  0  0  0  0  0
   -7.1475    0.7666   -0.6446 C   0  0  0  0  0  0  0  0  0  0  0  0
   -6.5226   -0.0918    0.3572 N   0  0  0  0  0  0  0  0  0  0  0  0
   -5.1034   -0.1018    0.1746 C   0  0  0  0  0  0  0  0  0  0  0  0
   -4.5080    1.2702    0.5113 C   0  0  0  0  0  0  0  0  0  0  0  0
   -3.0506    1.1333    0.2882 C   0  0  0  0  0  0  0  0  0  0  0  0
   -2.4337    1.3887   -0.9198 C   0  0  0  0  0  0  0  0  0  0  0  0
   -1.0701    1.2355   -1.0383 C   0  0  0  0  0  0  0  0  0  0  0  0
   -0.2690    0.8270    0.0237 C   0  0  0  0  0  0  0  0  0  0  0  0
   -0.8992    0.5755    1.2237 C   0  0  0  0  0  0  0  0  0  0  0  0
   -2.2639    0.7287    1.3433 C   0  0  0  0  0  0  0  0  0  0  0  0
   -0.0961    0.1705    2.2707 C   0  0  0  0  0  0  0  0  0  0  0  0
    1.2811    0.0423    2.0549 C   0  0  0  0  0  0  0  0  0  0  0  0
    1.8585    0.3075    0.8318 C   0  0  0  0  0  0  0  0  0  0  0  0
    1.0530    0.6967   -0.1568 N   0  0  0  0  0  0  0  0  0  0  0  0
    3.2970    0.1697    0.6288 C   0  0  0  0  0  0  0  0  0  0  0  0
    4.1481   -0.2401    1.6417 C   0  0  0  0  0  0  0  0  0  0  0  0
    5.4886   -0.3638    1.4444 N   0  0  0  0  0  0  0  0  0  0  0  0
    6.0437   -0.0916    0.2514 C   0  0  0  0  0  0  0  0  0  0  0  0
    5.2294    0.3062   -0.7383 N   0  0  0  0  0  0  0  0  0  0  0  0
    3.8864    0.4437   -0.5868 C   0  0  0  0  0  0  0  0  0  0  0  0
    3.1004    0.8905   -1.7549 C   0  0  0  0  0  0  0  0  0  0  0  0
    7.4515   -0.2350    0.1028 N   0  0  0  0  0  0  0  0  0  0  0  0
    8.3017   -0.6562    1.2174 C   0  0  0  0  0  0  0  0  0  0  0  0
    9.5252   -1.2510    0.6021 C   0  0  0  0  0  0  0  0  0  0  0  0
    9.4251   -0.9554   -0.8744 C   0  0  0  0  0  0  0  0  0  0  0  0
    8.2824   -0.0193   -1.0618 C   0  0  0  0  0  0  0  0  0  0  0  0
   -5.3934   -2.3662   -1.0118 H   0  0  0  0  0  0  0  0  0  0  0  0
   -6.4677   -1.2562   -1.9943 H   0  0  0  0  0  0  0  0  0  0  0  0
   -7.0289   -2.8857   -1.4642 H   0  0  0  0  0  0  0  0  0  0  0  0
   -6.7638   -2.0793    0.9322 H   0  0  0  0  0  0  0  0  0  0  0  0
   -8.9542   -0.9976    0.9027 H   0  0  0  0  0  0  0  0  0  0  0  0
   -9.0137   -1.9891   -0.6379 H   0  0  0  0  0  0  0  0  0  0  0  0
   -9.2881    0.7774   -0.4507 H   0  0  0  0  0  0  0  0  0  0  0  0
   -8.6673   -0.1336   -1.9308 H   0  0  0  0  0  0  0  0  0  0  0  0
   -7.2928    1.8075   -0.2660 H   0  0  0  0  0  0  0  0  0  0  0  0
   -6.4960    0.7571   -1.5492 H   0  0  0  0  0  0  0  0  0  0  0  0
   -4.6805   -0.8829    0.8518 H   0  0  0  0  0  0  0  0  0  0  0  0
   -4.8186   -0.3922   -0.8560 H   0  0  0  0  0  0  0  0  0  0  0  0
   -4.7934    1.5846    1.5143 H   0  0  0  0  0  0  0  0  0  0  0  0
   -4.9031    1.9848   -0.2314 H   0  0  0  0  0  0  0  0  0  0  0  0
   -3.0369    1.7070   -1.7592 H   0  0  0  0  0  0  0  0  0  0  0  0
   -0.5904    1.4400   -1.9987 H   0  0  0  0  0  0  0  0  0  0  0  0
   -2.6804    0.5095    2.3293 H   0  0  0  0  0  0  0  0  0  0  0  0
   -0.5498   -0.0318    3.2093 H   0  0  0  0  0  0  0  0  0  0  0  0
    1.8417   -0.2776    2.9214 H   0  0  0  0  0  0  0  0  0  0  0  0
    3.8034   -0.4828    2.6335 H   0  0  0  0  0  0  0  0  0  0  0  0
    2.3218    0.1901   -2.0796 H   0  0  0  0  0  0  0  0  0  0  0  0
    2.6096    1.8553   -1.4934 H   0  0  0  0  0  0  0  0  0  0  0  0
    3.7924    1.1552   -2.6024 H   0  0  0  0  0  0  0  0  0  0  0  0
    7.7958   -1.4470    1.8292 H   0  0  0  0  0  0  0  0  0  0  0  0
    8.5228    0.1903    1.9049 H   0  0  0  0  0  0  0  0  0  0  0  0
    9.5909   -2.3620    0.7748 H   0  0  0  0  0  0  0  0  0  0  0  0
   10.4712   -0.8604    1.0539 H   0  0  0  0  0  0  0  0  0  0  0  0
   10.4024   -0.5054   -1.1753 H   0  0  0  0  0  0  0  0  0  0  0  0
    9.2967   -1.9186   -1.4099 H   0  0  0  0  0  0  0  0  0  0  0  0
    7.7333   -0.2135   -2.0078 H   0  0  0  0  0  0  0  0  0  0  0  0
    8.6603    1.0238   -1.0609 H   0  0  0  0  0  0  0  0  0  0  0  0
  1  2  1  0
  2  3  1  0
  3  4  1  0
  4  5  1  0
  5  6  1  0
  6  7  1  0
  7  8  1  0
  8  9  1  0
  9 10  2  0
 10 11  1  0
 11 12  2  0
 12 13  1  0
 13 14  2  0
 13 15  1  0
 15 16  2  0
 16 17  1  0
 17 18  2  0
 17 19  1  0
 19 20  2  0
 20 21  1  0
 21 22  2  0
 22 23  1  0
 23 24  2  0
 24 25  1  0
 22 26  1  0
 26 27  1  0
 27 28  1  0
 28 29  1  0
 29 30  1  0
  6  2  1  0
 14  9  1  0
 24 19  1  0
 30 26  1  0
 18 12  1  0
  1 31  1  0
  1 32  1  0
  1 33  1  0
  2 34  1  1
  3 35  1  0
  3 36  1  0
  4 37  1  0
  4 38  1  0
  5 39  1  0
  5 40  1  0
  7 41  1  0
  7 42  1  0
  8 43  1  0
  8 44  1  0
 10 45  1  0
 11 46  1  0
 14 47  1  0
 15 48  1  0
 16 49  1  0
 20 50  1  0
 25 51  1  0
 25 52  1  0
 25 53  1  0
 27 54  1  0
 27 55  1  0
 28 56  1  0
 28 57  1  0
 29 58  1  0
 29 59  1  0
 30 60  1  0
 30 61  1  0
M  END
>  <Ligand ID>  (1) 
LIG0005247

>  <Ligand>  (1) 
CHEMBL237191

>  <SMILES>  (1) 
C[C@@H]1CCCN1CCc1ccc2c(c1)ccc(n2)c1cnc(nc1C)N1CCCC1

>  <CID>  (1) 
11647025.0

>  <ChEMBL ID>  (1) 
nan

>  <InChiKey>  (1) 
DWAOPDWPKFXRII-GOSISDBHSA-N

>  <InChi>  (1) 
InChI=1S/C25H31N5/c1-18-6-5-14-29(18)15-11-20-7-9-23-21(16-20)8-10-24(28-23)22-17-26-25(27-19(22)2)30-12-3-4-13-30/h7-10,16-18H,3-6,11-15H2,1-2H3/t18-/m1/s1

>  <IUPAC Name>  (1) 
6-[2-[(2R)-2-methylpyrrolidin-1-yl]ethyl]-2-(4-methyl-2-pyrrolidin-1-ylpyrimidin-5-yl)quinoline

$$$$
