
     RDKit          3D

 34 34  0  0  0  0  0  0  0  0999 V2000
    3.4306   -1.3863   -1.8796 C   0  0  0  0  0  0  0  0  0  0  0  0
    2.1874   -1.5831   -1.4756 C   0  0  0  0  0  0  0  0  0  0  0  0
    1.7292   -1.6498   -0.0789 C   0  0  0  0  0  0  0  0  0  0  0  0
    0.7849   -0.6957    0.2536 O   0  0  0  0  0  0  0  0  0  0  0  0
    0.8739    0.6561    0.2515 C   0  0  0  0  0  0  0  0  0  0  0  0
    1.9678    1.4132   -0.0828 C   0  0  0  0  0  0  0  0  0  0  0  0
    1.9998    2.7899   -0.0630 C   0  0  0  0  0  0  0  0  0  0  0  0
    0.8794    3.4856    0.3121 C   0  0  0  0  0  0  0  0  0  0  0  0
   -0.2388    2.7652    0.6551 C   0  0  0  0  0  0  0  0  0  0  0  0
   -0.2727    1.3703    0.6350 C   0  0  0  0  0  0  0  0  0  0  0  0
   -1.5387    0.7386    1.0100 C   0  0  0  0  0  0  0  0  0  0  0  0
   -2.7330    0.6532    0.1710 C   0  0  0  0  0  0  0  0  0  0  0  0
   -1.8472   -0.5644    0.3042 C   0  0  0  0  0  0  0  0  0  0  0  0
   -2.3948   -1.7105    1.1407 C   0  0  0  0  0  0  0  0  0  0  0  0
   -2.6141   -2.8418    0.2690 N   0  0  0  0  0  0  0  0  0  0  0  0
   -1.6609    3.6753    1.1320 Cl  0  0  0  0  0  0  0  0  0  0  0  0
    0.9483    5.2321    0.3287 Cl  0  0  0  0  0  0  0  0  0  0  0  0
    0.6871    0.0000    0.0000 Cl  0  0  0  0  0  0  0  0  0  0  0  0
    3.7445   -1.3410   -2.9110 H   0  0  0  0  0  0  0  0  0  0  0  0
    4.1801   -1.2628   -1.0953 H   0  0  0  0  0  0  0  0  0  0  0  0
    1.4388   -1.7066   -2.2760 H   0  0  0  0  0  0  0  0  0  0  0  0
    1.3302   -2.6888    0.1437 H   0  0  0  0  0  0  0  0  0  0  0  0
    2.6304   -1.5148    0.5674 H   0  0  0  0  0  0  0  0  0  0  0  0
    2.8775    0.9176   -0.3764 H   0  0  0  0  0  0  0  0  0  0  0  0
    2.8963    3.3292   -0.3391 H   0  0  0  0  0  0  0  0  0  0  0  0
   -1.7034    0.7175    2.1118 H   0  0  0  0  0  0  0  0  0  0  0  0
   -3.7224    0.5970    0.6731 H   0  0  0  0  0  0  0  0  0  0  0  0
   -2.8037    1.0727   -0.8421 H   0  0  0  0  0  0  0  0  0  0  0  0
   -1.3064   -0.8880   -0.5937 H   0  0  0  0  0  0  0  0  0  0  0  0
   -3.2871   -1.3693    1.6794 H   0  0  0  0  0  0  0  0  0  0  0  0
   -1.5631   -2.0041    1.8175 H   0  0  0  0  0  0  0  0  0  0  0  0
   -3.1761   -2.5583   -0.5874 H   0  0  0  0  0  0  0  0  0  0  0  0
   -3.0364   -3.6484    0.7520 H   0  0  0  0  0  0  0  0  0  0  0  0
   -0.6871    0.0000    0.0000 H   0  0  0  0  0  0  0  0  0  0  0  0
  1  2  2  0
  2  3  1  0
  3  4  1  0
  4  5  1  0
  5  6  2  0
  6  7  1  0
  7  8  2  0
  8  9  1  0
  9 10  2  0
 10 11  1  0
 11 12  1  0
 12 13  1  0
 13 14  1  0
 14 15  1  0
  9 16  1  0
  8 17  1  0
 10  5  1  0
 13 11  1  0
  1 19  1  0
  1 20  1  0
  2 21  1  0
  3 22  1  0
  3 23  1  0
  6 24  1  0
  7 25  1  0
 11 26  1  0
 12 27  1  0
 12 28  1  0
 13 29  1  0
 14 30  1  0
 14 31  1  0
 15 32  1  0
 15 33  1  0
 18 34  1  0
M  END
>  <Ligand ID>  (1) 
LIG0005647

>  <Ligand>  (1) 
CHEMBL3769581

>  <SMILES>  (1) 
C=CCOc1ccc(c(c1C1CC1CN)Cl)Cl.Cl

>  <CID>  (1) 
127028403.0

>  <ChEMBL ID>  (1) 
nan

>  <InChiKey>  (1) 
BTLXESDKVLUUTN-UHFFFAOYSA-N

>  <InChi>  (1) 
InChI=1S/C13H15Cl2NO.ClH/c1-2-5-17-11-4-3-10(14)13(15)12(11)9-6-8(9)7-16;/h2-4,8-9H,1,5-7,16H2;1H

>  <IUPAC Name>  (1) 
[2-(2,3-dichloro-6-prop-2-enoxyphenyl)cyclopropyl]methanamine;hydrochloride

$$$$
