
     RDKit          3D

 50 53  0  0  0  0  0  0  0  0999 V2000
    4.4224   -2.3812   -1.5798 C   0  0  0  0  0  0  0  0  0  0  0  0
    3.6943   -1.3723   -0.9122 O   0  0  0  0  0  0  0  0  0  0  0  0
    4.2099   -0.1189   -0.6434 C   0  0  0  0  0  0  0  0  0  0  0  0
    5.5159    0.1445   -1.0596 C   0  0  0  0  0  0  0  0  0  0  0  0
    6.1122    1.3801   -0.8293 C   0  0  0  0  0  0  0  0  0  0  0  0
    5.3713    2.3418   -0.1744 C   0  0  0  0  0  0  0  0  0  0  0  0
    4.0778    2.0770    0.2362 C   0  0  0  0  0  0  0  0  0  0  0  0
    3.4728    0.8537    0.0140 C   0  0  0  0  0  0  0  0  0  0  0  0
    2.0915    0.5616    0.4491 C   0  0  0  0  0  0  0  0  0  0  0  0
    1.0745    0.9031   -0.5868 C   0  0  0  0  0  0  0  0  0  0  0  0
   -0.2905    1.1085   -0.0795 C   0  0  0  0  0  0  0  0  0  0  0  0
   -0.5855    0.6163    1.2150 N   0  0  0  0  0  0  0  0  0  0  0  0
    0.4476    0.6704    2.1845 C   0  0  0  0  0  0  0  0  0  0  0  0
    1.7155    1.3319    1.6985 C   0  0  0  0  0  0  0  0  0  0  0  0
   -1.8987    0.8467    1.6873 C   0  0  0  0  0  0  0  0  0  0  0  0
   -2.9664    0.2545    0.8622 C   0  0  0  0  0  0  0  0  0  0  0  0
   -3.5738    0.8958   -0.1795 N   0  0  0  0  0  0  0  0  0  0  0  0
   -4.5011    0.0864   -0.7232 C   0  0  0  0  0  0  0  0  0  0  0  0
   -4.4855   -1.0970   -0.0136 C   0  0  0  0  0  0  0  0  0  0  0  0
   -3.5343   -0.9670    0.9538 N   0  0  0  0  0  0  0  0  0  0  0  0
   -3.1748   -1.9730    1.9367 C   0  0  0  0  0  0  0  0  0  0  0  0
   -5.3446   -2.1300   -0.3518 C   0  0  0  0  0  0  0  0  0  0  0  0
   -6.2212   -1.9450   -1.4219 C   0  0  0  0  0  0  0  0  0  0  0  0
   -6.2319   -0.7439   -2.1365 C   0  0  0  0  0  0  0  0  0  0  0  0
   -5.3646    0.2914   -1.7906 C   0  0  0  0  0  0  0  0  0  0  0  0
    3.7125   -3.1880   -1.8644 H   0  0  0  0  0  0  0  0  0  0  0  0
    4.8190   -1.9860   -2.5390 H   0  0  0  0  0  0  0  0  0  0  0  0
    5.2269   -2.7671   -0.9122 H   0  0  0  0  0  0  0  0  0  0  0  0
    6.0711   -0.6466   -1.5768 H   0  0  0  0  0  0  0  0  0  0  0  0
    7.1179    1.5872   -1.1481 H   0  0  0  0  0  0  0  0  0  0  0  0
    5.8383    3.3220    0.0107 H   0  0  0  0  0  0  0  0  0  0  0  0
    3.5476    2.8673    0.7433 H   0  0  0  0  0  0  0  0  0  0  0  0
    1.9574   -0.5256    0.7010 H   0  0  0  0  0  0  0  0  0  0  0  0
    1.0340    0.0794   -1.3579 H   0  0  0  0  0  0  0  0  0  0  0  0
    1.4198    1.8222   -1.1413 H   0  0  0  0  0  0  0  0  0  0  0  0
   -1.0528    0.6921   -0.7740 H   0  0  0  0  0  0  0  0  0  0  0  0
   -0.5151    2.2063   -0.0628 H   0  0  0  0  0  0  0  0  0  0  0  0
    0.0767    1.1521    3.1062 H   0  0  0  0  0  0  0  0  0  0  0  0
    0.7203   -0.3793    2.4586 H   0  0  0  0  0  0  0  0  0  0  0  0
    2.4605    1.2550    2.4948 H   0  0  0  0  0  0  0  0  0  0  0  0
    1.5272    2.3966    1.4827 H   0  0  0  0  0  0  0  0  0  0  0  0
   -1.9732    0.5217    2.7464 H   0  0  0  0  0  0  0  0  0  0  0  0
   -2.0884    1.9589    1.7369 H   0  0  0  0  0  0  0  0  0  0  0  0
   -2.2361   -2.4806    1.7052 H   0  0  0  0  0  0  0  0  0  0  0  0
   -3.9524   -2.7792    1.9565 H   0  0  0  0  0  0  0  0  0  0  0  0
   -3.1759   -1.5767    2.9817 H   0  0  0  0  0  0  0  0  0  0  0  0
   -5.3487   -3.0667    0.1920 H   0  0  0  0  0  0  0  0  0  0  0  0
   -6.9157   -2.7183   -1.7314 H   0  0  0  0  0  0  0  0  0  0  0  0
   -6.9200   -0.5994   -2.9761 H   0  0  0  0  0  0  0  0  0  0  0  0
   -5.3837    1.2169   -2.3533 H   0  0  0  0  0  0  0  0  0  0  0  0
  1  2  1  0
  2  3  1  0
  3  4  2  0
  4  5  1  0
  5  6  2  0
  6  7  1  0
  7  8  2  0
  8  9  1  0
  9 10  1  0
 10 11  1  0
 11 12  1  0
 12 13  1  0
 13 14  1  0
 12 15  1  0
 15 16  1  0
 16 17  2  0
 17 18  1  0
 18 19  2  0
 19 20  1  0
 20 21  1  0
 19 22  1  0
 22 23  2  0
 23 24  1  0
 24 25  2  0
  8  3  1  0
 14  9  1  0
 20 16  1  0
 25 18  1  0
  1 26  1  0
  1 27  1  0
  1 28  1  0
  4 29  1  0
  5 30  1  0
  6 31  1  0
  7 32  1  0
  9 33  1  0
 10 34  1  0
 10 35  1  0
 11 36  1  0
 11 37  1  0
 13 38  1  0
 13 39  1  0
 14 40  1  0
 14 41  1  0
 15 42  1  0
 15 43  1  0
 21 44  1  0
 21 45  1  0
 21 46  1  0
 22 47  1  0
 23 48  1  0
 24 49  1  0
 25 50  1  0
M  END
>  <Ligand ID>  (1) 
LIG0004581

>  <Ligand>  (1) 
CHEMBL1774101

>  <SMILES>  (1) 
COc1ccccc1C1CCN(CC1)Cc1nc2c(n1C)cccc2

>  <CID>  (1) 
51356569.0

>  <ChEMBL ID>  (1) 
nan

>  <InChiKey>  (1) 
MJDLYRJRCRLNGE-UHFFFAOYSA-N

>  <InChi>  (1) 
InChI=1S/C21H25N3O/c1-23-19-9-5-4-8-18(19)22-21(23)15-24-13-11-16(12-14-24)17-7-3-6-10-20(17)25-2/h3-10,16H,11-15H2,1-2H3

>  <IUPAC Name>  (1) 
2-[[4-(2-methoxyphenyl)piperidin-1-yl]methyl]-1-methylbenzimidazole

$$$$
