
     RDKit          3D

 25 24  0  0  0  0  0  0  0  0999 V2000
   -3.4063    1.0488   -0.1032 C   0  0  0  0  0  0  0  0  0  0  0  0
   -2.6009   -0.1988   -0.2682 C   0  0  0  0  0  0  0  0  0  0  0  0
   -1.2440   -0.1019    0.3973 C   0  0  0  0  0  0  0  0  0  0  0  0
   -0.4382   -1.3555    0.2298 C   0  0  0  0  0  0  0  0  0  0  0  0
    0.9191   -1.3500    0.8263 C   0  0  0  0  0  0  0  0  0  0  0  0
    1.9124   -0.4382    0.2909 C   0  0  0  0  0  0  0  0  0  0  0  0
    1.8025    0.3860   -0.7311 C   0  0  0  0  0  0  0  0  0  0  0  0
    2.9381    1.2814   -1.1654 C   0  0  0  0  0  0  0  0  0  0  0  0
    4.0503    1.1127   -0.3692 O   0  0  0  0  0  0  0  0  0  0  0  0
   -3.1626    1.6449    0.8028 H   0  0  0  0  0  0  0  0  0  0  0  0
   -3.3606    1.7108   -1.0106 H   0  0  0  0  0  0  0  0  0  0  0  0
   -4.4762    0.7643   -0.0238 H   0  0  0  0  0  0  0  0  0  0  0  0
   -3.1378   -1.0391    0.1747 H   0  0  0  0  0  0  0  0  0  0  0  0
   -2.4217   -0.3435   -1.3410 H   0  0  0  0  0  0  0  0  0  0  0  0
   -0.7180    0.8030    0.1629 H   0  0  0  0  0  0  0  0  0  0  0  0
   -1.5050   -0.0380    1.5125 H   0  0  0  0  0  0  0  0  0  0  0  0
   -1.0757   -2.1799    0.6688 H   0  0  0  0  0  0  0  0  0  0  0  0
   -0.3259   -1.6430   -0.8431 H   0  0  0  0  0  0  0  0  0  0  0  0
    0.8753   -1.2513    1.9532 H   0  0  0  0  0  0  0  0  0  0  0  0
    1.3301   -2.4010    0.6828 H   0  0  0  0  0  0  0  0  0  0  0  0
    2.9013   -0.4200    0.7980 H   0  0  0  0  0  0  0  0  0  0  0  0
    0.9105    0.4497   -1.3272 H   0  0  0  0  0  0  0  0  0  0  0  0
    3.2150    1.0318   -2.2030 H   0  0  0  0  0  0  0  0  0  0  0  0
    2.5867    2.3256   -1.0270 H   0  0  0  0  0  0  0  0  0  0  0  0
    4.4317    0.2012   -0.4179 H   0  0  0  0  0  0  0  0  0  0  0  0
  1  2  1  0
  2  3  1  0
  3  4  1  0
  4  5  1  0
  5  6  1  0
  6  7  2  0
  7  8  1  0
  8  9  1  0
  1 10  1  0
  1 11  1  0
  1 12  1  0
  2 13  1  0
  2 14  1  0
  3 15  1  0
  3 16  1  0
  4 17  1  0
  4 18  1  0
  5 19  1  0
  5 20  1  0
  6 21  1  0
  7 22  1  0
  8 23  1  0
  8 24  1  0
  9 25  1  0
M  END
>  <Ligand ID>  (1) 
LIG0000303

>  <Ligand>  (1) 
(E)-oct-2-en-1-ol

>  <SMILES>  (1) 
CCCCC/C=C/CO

>  <CID>  (1) 
5318599.0

>  <ChEMBL ID>  (1) 
nan

>  <InChiKey>  (1) 
AYQPVPFZWIQERS-VOTSOKGWSA-N

>  <InChi>  (1) 
InChI=1S/C8H16O/c1-2-3-4-5-6-7-8-9/h6-7,9H,2-5,8H2,1H3/b7-6+

>  <IUPAC Name>  (1) 
(E)-oct-2-en-1-ol

$$$$
