
     RDKit          3D

 30 32  0  0  0  0  0  0  0  0999 V2000
    4.0578    0.1375   -1.8261 C   0  0  0  0  0  0  0  0  0  0  0  0
    3.7037    0.7239   -0.1599 S   0  0  0  0  0  0  0  0  0  0  0  0
    2.3737   -0.1913    0.5942 C   0  0  0  0  0  0  0  0  0  0  0  0
    2.6988   -1.3207    1.3192 C   0  0  0  0  0  0  0  0  0  0  0  0
    1.7034   -2.0702    1.9269 C   0  0  0  0  0  0  0  0  0  0  0  0
    0.3808   -1.6721    1.7979 C   0  0  0  0  0  0  0  0  0  0  0  0
    0.0622   -0.5309    1.0645 C   0  0  0  0  0  0  0  0  0  0  0  0
    1.0578    0.2099    0.4622 C   0  0  0  0  0  0  0  0  0  0  0  0
    0.4243    1.3264   -0.2288 C   0  0  0  0  0  0  0  0  0  0  0  0
    1.0609    2.1895   -0.8765 O   0  0  0  0  0  0  0  0  0  0  0  0
   -0.9639    1.1987   -0.0025 N   0  0  0  0  0  0  0  0  0  0  0  0
   -1.2702    0.0518    0.8201 C   0  0  0  0  0  0  0  0  0  0  0  0
   -2.1932   -0.9165    0.1163 C   0  0  0  0  0  0  0  0  0  0  0  0
   -3.1081   -0.2319   -0.7726 N   0  0  0  0  0  0  0  0  0  0  0  0
   -3.3151    1.1468   -0.3899 C   0  0  0  0  0  0  0  0  0  0  0  0
   -2.0970    2.0033   -0.4495 C   0  0  0  0  0  0  0  0  0  0  0  0
    4.5948    0.9642   -2.3776 H   0  0  0  0  0  0  0  0  0  0  0  0
    4.6491   -0.8071   -1.8129 H   0  0  0  0  0  0  0  0  0  0  0  0
    3.1068    0.0099   -2.3851 H   0  0  0  0  0  0  0  0  0  0  0  0
    3.7335   -1.6602    1.4391 H   0  0  0  0  0  0  0  0  0  0  0  0
    1.9685   -2.9517    2.4914 H   0  0  0  0  0  0  0  0  0  0  0  0
   -0.4170   -2.2584    2.2754 H   0  0  0  0  0  0  0  0  0  0  0  0
   -1.7611    0.3618    1.7853 H   0  0  0  0  0  0  0  0  0  0  0  0
   -1.6383   -1.6729   -0.4902 H   0  0  0  0  0  0  0  0  0  0  0  0
   -2.8024   -1.4190    0.8941 H   0  0  0  0  0  0  0  0  0  0  0  0
   -4.0449   -0.6761   -0.8455 H   0  0  0  0  0  0  0  0  0  0  0  0
   -4.0842    1.5818   -1.0593 H   0  0  0  0  0  0  0  0  0  0  0  0
   -3.7526    1.2316    0.6418 H   0  0  0  0  0  0  0  0  0  0  0  0
   -1.9224    2.4095   -1.4692 H   0  0  0  0  0  0  0  0  0  0  0  0
   -2.2055    2.8323    0.2806 H   0  0  0  0  0  0  0  0  0  0  0  0
  1  2  1  0
  2  3  1  0
  3  4  2  0
  4  5  1  0
  5  6  2  0
  6  7  1  0
  7  8  2  0
  8  9  1  0
  9 10  2  0
  9 11  1  0
 11 12  1  0
 12 13  1  0
 13 14  1  0
 14 15  1  0
 15 16  1  0
  8  3  1  0
 16 11  1  0
 12  7  1  0
  1 17  1  0
  1 18  1  0
  1 19  1  0
  4 20  1  0
  5 21  1  0
  6 22  1  0
 12 23  1  0
 13 24  1  0
 13 25  1  0
 14 26  1  0
 15 27  1  0
 15 28  1  0
 16 29  1  0
 16 30  1  0
M  END
>  <Ligand ID>  (1) 
LIG0004961

>  <Ligand>  (1) 
CHEMBL220207

>  <SMILES>  (1) 
CSc1cccc2c1C(=O)N1C2CNCC1

>  <CID>  (1) 
11437171.0

>  <ChEMBL ID>  (1) 
nan

>  <InChiKey>  (1) 
OUSYFWWSFRQVIJ-UHFFFAOYSA-N

>  <InChi>  (1) 
InChI=1S/C12H14N2OS/c1-16-10-4-2-3-8-9-7-13-5-6-14(9)12(15)11(8)10/h2-4,9,13H,5-7H2,1H3

>  <IUPAC Name>  (1) 
7-methylsulfanyl-2,3,4,10b-tetrahydro-1H-pyrazino[1,2-b]isoindol-6-one

$$$$
