
     RDKit          3D

 37 36  0  0  0  0  0  0  0  0999 V2000
   -5.4266    0.6424   -0.9276 C   0  0  0  0  0  0  0  0  0  0  0  0
   -4.2060   -0.1704   -0.4880 C   0  0  0  0  0  0  0  0  0  0  0  0
   -3.4184    0.7520    0.4102 C   0  0  0  0  0  0  0  0  0  0  0  0
   -2.1644    0.0457    0.9194 C   0  0  0  0  0  0  0  0  0  0  0  0
   -1.2616   -0.3818   -0.1924 C   0  0  0  0  0  0  0  0  0  0  0  0
   -0.0005   -1.0874    0.2850 C   0  0  0  0  0  0  0  0  0  0  0  0
    0.8327   -0.2290    1.1716 C   0  0  0  0  0  0  0  0  0  0  0  0
    2.0579   -0.9913    1.6209 C   0  0  0  0  0  0  0  0  0  0  0  0
    2.8842   -1.3985    0.4282 C   0  0  0  0  0  0  0  0  0  0  0  0
    3.3595   -0.2643   -0.4172 C   0  0  0  0  0  0  0  0  0  0  0  0
    4.2305    0.6768    0.3130 C   0  0  0  0  0  0  0  0  0  0  0  0
    4.5827    0.5746    1.4673 O   0  0  0  0  0  0  0  0  0  0  0  0
    4.7310    1.8740   -0.4359 C   0  0  0  0  0  0  0  0  0  0  0  0
   -5.8706    1.1591   -0.0618 H   0  0  0  0  0  0  0  0  0  0  0  0
   -6.1903   -0.0603   -1.3142 H   0  0  0  0  0  0  0  0  0  0  0  0
   -5.1067    1.3376   -1.7274 H   0  0  0  0  0  0  0  0  0  0  0  0
   -4.5457   -1.0795    0.0330 H   0  0  0  0  0  0  0  0  0  0  0  0
   -3.5906   -0.4285   -1.3812 H   0  0  0  0  0  0  0  0  0  0  0  0
   -4.0677    0.9624    1.2785 H   0  0  0  0  0  0  0  0  0  0  0  0
   -3.1068    1.6665   -0.0859 H   0  0  0  0  0  0  0  0  0  0  0  0
   -1.6734    0.6880    1.6800 H   0  0  0  0  0  0  0  0  0  0  0  0
   -2.5691   -0.8463    1.4751 H   0  0  0  0  0  0  0  0  0  0  0  0
   -1.0721    0.4179   -0.9187 H   0  0  0  0  0  0  0  0  0  0  0  0
   -1.8154   -1.1909   -0.7545 H   0  0  0  0  0  0  0  0  0  0  0  0
    0.5811   -1.3285   -0.6516 H   0  0  0  0  0  0  0  0  0  0  0  0
   -0.3080   -2.0318    0.7532 H   0  0  0  0  0  0  0  0  0  0  0  0
    0.2638    0.1780    2.0274 H   0  0  0  0  0  0  0  0  0  0  0  0
    1.2261    0.6708    0.6339 H   0  0  0  0  0  0  0  0  0  0  0  0
    1.7465   -1.9413    2.1403 H   0  0  0  0  0  0  0  0  0  0  0  0
    2.6888   -0.3875    2.3040 H   0  0  0  0  0  0  0  0  0  0  0  0
    2.3526   -2.1299   -0.2288 H   0  0  0  0  0  0  0  0  0  0  0  0
    3.8167   -1.8958    0.8291 H   0  0  0  0  0  0  0  0  0  0  0  0
    3.9835   -0.6518   -1.2763 H   0  0  0  0  0  0  0  0  0  0  0  0
    2.5098    0.2687   -0.8979 H   0  0  0  0  0  0  0  0  0  0  0  0
    4.1527    2.0487   -1.3529 H   0  0  0  0  0  0  0  0  0  0  0  0
    4.6025    2.7557    0.2475 H   0  0  0  0  0  0  0  0  0  0  0  0
    5.7916    1.7758   -0.7200 H   0  0  0  0  0  0  0  0  0  0  0  0
  1  2  1  0
  2  3  1  0
  3  4  1  0
  4  5  1  0
  5  6  1  0
  6  7  1  0
  7  8  1  0
  8  9  1  0
  9 10  1  0
 10 11  1  0
 11 12  2  0
 11 13  1  0
  1 14  1  0
  1 15  1  0
  1 16  1  0
  2 17  1  0
  2 18  1  0
  3 19  1  0
  3 20  1  0
  4 21  1  0
  4 22  1  0
  5 23  1  0
  5 24  1  0
  6 25  1  0
  6 26  1  0
  7 27  1  0
  7 28  1  0
  8 29  1  0
  8 30  1  0
  9 31  1  0
  9 32  1  0
 10 33  1  0
 10 34  1  0
 13 35  1  0
 13 36  1  0
 13 37  1  0
M  END
>  <Ligand ID>  (1) 
LIG0005032

>  <Ligand>  (1) 
dodecan-2-one

>  <SMILES>  (1) 
CCCCCCCCCCC(=O)C

>  <CID>  (1) 
22556.0

>  <ChEMBL ID>  (1) 
nan

>  <InChiKey>  (1) 
LSKONYYRONEBKA-UHFFFAOYSA-N

>  <InChi>  (1) 
InChI=1S/C12H24O/c1-3-4-5-6-7-8-9-10-11-12(2)13/h3-11H2,1-2H3

>  <IUPAC Name>  (1) 
dodecan-2-one

$$$$
