
     RDKit          3D

 78 82  0  0  0  0  0  0  0  0999 V2000
  -12.9370    0.6650   -2.1763 O   0  0  0  0  0  0  0  0  0  0  0  0
  -11.8058    0.8987   -1.6893 C   0  0  0  0  0  0  0  0  0  0  0  0
  -10.7601    0.0215   -1.9007 C   0  0  0  0  0  0  0  0  0  0  0  0
   -9.5345    0.2932   -1.3618 C   0  0  0  0  0  0  0  0  0  0  0  0
   -9.4078    1.4298   -0.6352 N   0  0  0  0  0  0  0  0  0  0  0  0
  -10.4485    2.2672   -0.4464 C   0  0  0  0  0  0  0  0  0  0  0  0
  -10.3194    3.3229    0.2319 O   0  0  0  0  0  0  0  0  0  0  0  0
  -11.6762    2.0271   -0.9668 N   0  0  0  0  0  0  0  0  0  0  0  0
   -8.1498    1.8165   -0.0167 C   0  0  2  0  0  0  0  0  0  0  0  0
   -7.1304    1.1534   -0.6531 O   0  0  0  0  0  0  0  0  0  0  0  0
   -6.3239    0.5708    0.3154 C   0  0  1  0  0  0  0  0  0  0  0  0
   -7.3001    0.1615    1.3991 C   0  0  2  0  0  0  0  0  0  0  0  0
   -8.1998    1.3823    1.4153 C   0  0  1  0  0  0  0  0  0  0  0  0
   -7.6407    2.3884    2.2017 O   0  0  0  0  0  0  0  0  0  0  0  0
   -6.6631   -0.0466    2.6177 O   0  0  0  0  0  0  0  0  0  0  0  0
   -5.5593   -0.6175   -0.2219 C   0  0  0  0  0  0  0  0  0  0  0  0
   -4.7462   -1.2292    0.6982 O   0  0  0  0  0  0  0  0  0  0  0  0
   -3.8873   -2.5460    0.1294 P   0  0  0  0  0  0  0  0  0  0  0  0
   -3.9255   -2.5897   -1.3601 O   0  0  0  0  0  0  0  0  0  0  0  0
   -2.3275   -2.5829    0.7755 O   0  0  0  0  0  0  0  0  0  0  0  0
   -1.2611   -1.5518   -0.0237 P   0  0  0  0  0  0  0  0  0  0  0  0
   -2.0286   -0.3254   -0.5079 O   0  0  0  0  0  0  0  0  0  0  0  0
   -0.1339   -0.9934    1.0902 O   0  0  0  0  0  0  0  0  0  0  0  0
    1.0217   -2.1256    1.5050 P   0  0  0  0  0  0  0  0  0  0  0  0
    0.4421   -3.1574    2.4652 O   0  0  0  0  0  0  0  0  0  0  0  0
    2.2522   -1.3212    2.3630 O   0  0  0  0  0  0  0  0  0  0  0  0
    2.6045    0.1871    1.7163 P   0  0  0  0  0  0  0  0  0  0  0  0
    1.3570    0.9837    1.4107 O   0  0  0  0  0  0  0  0  0  0  0  0
    3.5497    0.0710    0.3196 O   0  0  0  0  0  0  0  0  0  0  0  0
    4.5840   -0.8231    0.4547 C   0  0  0  0  0  0  0  0  0  0  0  0
    5.4291   -0.9271   -0.7999 C   0  0  1  0  0  0  0  0  0  0  0  0
    5.9624    0.3220   -1.0766 O   0  0  0  0  0  0  0  0  0  0  0  0
    7.0387    0.1258   -1.9299 C   0  0  2  0  0  0  0  0  0  0  0  0
    7.6448   -1.2052   -1.5536 C   0  0  0  0  0  0  0  0  0  0  0  0
    6.6273   -1.7980   -0.6093 C   0  0  2  0  0  0  0  0  0  0  0  0
    6.3857   -3.1303   -0.9715 O   0  0  0  0  0  0  0  0  0  0  0  0
    7.9981    1.2095   -1.8324 N   0  0  0  0  0  0  0  0  0  0  0  0
    8.2327    2.1500   -2.7651 C   0  0  0  0  0  0  0  0  0  0  0  0
    9.1847    2.9837   -2.3264 N   0  0  0  0  0  0  0  0  0  0  0  0
    9.5618    2.5724   -1.1027 C   0  0  0  0  0  0  0  0  0  0  0  0
    8.8117    1.4619   -0.8061 C   0  0  0  0  0  0  0  0  0  0  0  0
    9.0369    0.8821    0.3978 N   0  0  0  0  0  0  0  0  0  0  0  0
    9.9599    1.3967    1.2391 C   0  0  0  0  0  0  0  0  0  0  0  0
   10.1505    0.7413    2.4908 N   0  0  0  0  0  0  0  0  0  0  0  0
   10.6807    2.4800    0.9310 N   0  0  0  0  0  0  0  0  0  0  0  0
   10.5077    3.1110   -0.2566 C   0  0  0  0  0  0  0  0  0  0  0  0
   11.1937    4.1214   -0.5204 O   0  0  0  0  0  0  0  0  0  0  0  0
    3.5058    1.0490    2.8631 O   0  0  0  0  0  0  0  0  0  0  0  0
    1.7368   -2.8498    0.1592 O   0  0  0  0  0  0  0  0  0  0  0  0
   -0.5675   -2.2546   -1.3859 O   0  0  0  0  0  0  0  0  0  0  0  0
   -4.6883   -3.9486    0.6859 O   0  0  0  0  0  0  0  0  0  0  0  0
  -10.9093   -0.8790   -2.4912 H   0  0  0  0  0  0  0  0  0  0  0  0
   -8.6873   -0.3623   -1.4998 H   0  0  0  0  0  0  0  0  0  0  0  0
  -12.4565    2.7001   -0.7979 H   0  0  0  0  0  0  0  0  0  0  0  0
   -8.0591    2.9350   -0.1157 H   0  0  0  0  0  0  0  0  0  0  0  0
   -5.6825    1.3632    0.7382 H   0  0  0  0  0  0  0  0  0  0  0  0
   -7.8476   -0.7273    1.0448 H   0  0  0  0  0  0  0  0  0  0  0  0
   -9.2284    1.1333    1.7446 H   0  0  0  0  0  0  0  0  0  0  0  0
   -7.0072    2.9515    1.6869 H   0  0  0  0  0  0  0  0  0  0  0  0
   -7.2721   -0.6414    3.1398 H   0  0  0  0  0  0  0  0  0  0  0  0
   -6.3502   -1.3774   -0.4875 H   0  0  0  0  0  0  0  0  0  0  0  0
   -5.0786   -0.3565   -1.1841 H   0  0  0  0  0  0  0  0  0  0  0  0
    5.2066   -0.4569    1.3095 H   0  0  0  0  0  0  0  0  0  0  0  0
    4.2075   -1.8097    0.7714 H   0  0  0  0  0  0  0  0  0  0  0  0
    4.7996   -1.3461   -1.6042 H   0  0  0  0  0  0  0  0  0  0  0  0
    6.7007    0.0330   -2.9876 H   0  0  0  0  0  0  0  0  0  0  0  0
    7.7597   -1.8800   -2.4366 H   0  0  0  0  0  0  0  0  0  0  0  0
    8.6392   -1.0564   -1.0528 H   0  0  0  0  0  0  0  0  0  0  0  0
    7.0633   -1.7296    0.4133 H   0  0  0  0  0  0  0  0  0  0  0  0
    6.8276   -3.6940   -0.2871 H   0  0  0  0  0  0  0  0  0  0  0  0
    7.7146    2.2017   -3.7193 H   0  0  0  0  0  0  0  0  0  0  0  0
    9.2889    0.4603    2.9993 H   0  0  0  0  0  0  0  0  0  0  0  0
   11.0960    0.5449    2.8926 H   0  0  0  0  0  0  0  0  0  0  0  0
   11.3946    2.8566    1.6118 H   0  0  0  0  0  0  0  0  0  0  0  0
    2.9630    1.2204    3.6791 H   0  0  0  0  0  0  0  0  0  0  0  0
    1.6758   -2.3135   -0.6500 H   0  0  0  0  0  0  0  0  0  0  0  0
   -0.4851   -3.2346   -1.3182 H   0  0  0  0  0  0  0  0  0  0  0  0
   -4.3110   -4.7582    0.2761 H   0  0  0  0  0  0  0  0  0  0  0  0
  1  2  2  0
  2  3  1  0
  3  4  2  0
  4  5  1  0
  5  6  1  0
  6  7  2  0
  6  8  1  0
  5  9  1  0
  9 10  1  0
 10 11  1  0
 11 12  1  0
 12 13  1  0
 13 14  1  0
 12 15  1  0
 11 16  1  0
 16 17  1  0
 17 18  1  0
 18 19  2  0
 18 20  1  0
 20 21  1  0
 21 22  2  0
 21 23  1  0
 23 24  1  0
 24 25  2  0
 24 26  1  0
 26 27  1  0
 27 28  2  0
 27 29  1  0
 29 30  1  0
 30 31  1  0
 31 32  1  0
 32 33  1  0
 33 34  1  0
 34 35  1  0
 35 36  1  0
 33 37  1  0
 37 38  1  0
 38 39  2  0
 39 40  1  0
 40 41  2  0
 41 42  1  0
 42 43  2  0
 43 44  1  0
 43 45  1  0
 45 46  1  0
 46 47  2  0
 27 48  1  0
 24 49  1  0
 21 50  1  0
 18 51  1  0
  8  2  1  0
 13  9  1  0
 35 31  1  0
 41 37  1  0
 46 40  1  0
  3 52  1  0
  4 53  1  0
  8 54  1  0
  9 55  1  1
 11 56  1  1
 12 57  1  6
 13 58  1  1
 14 59  1  0
 15 60  1  0
 16 61  1  0
 16 62  1  0
 30 63  1  0
 30 64  1  0
 31 65  1  6
 33 66  1  6
 34 67  1  0
 34 68  1  0
 35 69  1  1
 36 70  1  0
 38 71  1  0
 44 72  1  0
 44 73  1  0
 45 74  1  0
 48 75  1  0
 49 76  1  0
 50 77  1  0
 51 78  1  0
M  END
>  <Ligand ID>  (1) 
LIG0002350

>  <Ligand>  (1) 
CHEMBL505403

>  <SMILES>  (1) 
O=c1ccn(c(=O)[nH]1)[C@@H]1O[C@@H]([C@H]([C@H]1O)O)COP(=O)(OP(=O)(OP(=O)(OP(=O)(OC[C@H]1O[C@H](C[C@@H]1O)n1cnc2c1nc(N)[nH]c2=O)O)O)O)O

>  <CID>  (1) 
135528590.0

>  <ChEMBL ID>  (1) 
nan

>  <InChiKey>  (1) 
FZOKIFDNPVZUQG-DBBURVGMSA-N

>  <InChi>  (1) 
InChI=1S/C19H27N7O21P4/c20-18-23-15-12(16(31)24-18)21-6-26(15)11-3-7(27)8(43-11)4-41-48(33,34)45-50(37,38)47-51(39,40)46-49(35,36)42-5-9-13(29)14(30)17(44-9)25-2-1-10(28)22-19(25)32/h1-2,6-9,11,13-14,17,27,29-30H,3-5H2,(H,33,34)(H,35,36)(H,37,38)(H,39,40)(H,22,28,32)(H3,20,23,24,31)/t7-,8+,9+,11+,13+,14+,17+/m0/s1

>  <IUPAC Name>  (1) 
[[(2R,3S,5R)-5-(2-amino-6-oxo-1H-purin-9-yl)-3-hydroxyoxolan-2-yl]methoxy-hydroxyphosphoryl] [[[(2R,3S,4R,5R)-5-(2,4-dioxopyrimidin-1-yl)-3,4-dihydroxyoxolan-2-yl]methoxy-hydroxyphosphoryl]oxy-hydroxyphosphoryl] hydrogen phosphate

$$$$
