
     RDKit          3D

 59 59  0  0  0  0  0  0  0  0999 V2000
    8.4133    0.3749   -0.5473 C   0  0  0  0  0  0  0  0  0  0  0  0
    8.2274   -0.8046    0.3740 C   0  0  0  0  0  0  0  0  0  0  0  0
    7.1843   -1.7607   -0.1048 C   0  0  0  0  0  0  0  0  0  0  0  0
    5.8214   -1.1207   -0.2389 C   0  0  0  0  0  0  0  0  0  0  0  0
    5.3964   -0.6029    1.0924 C   0  0  0  0  0  0  0  0  0  0  0  0
    4.0327    0.0580    1.0550 C   0  0  0  0  0  0  0  0  0  0  0  0
    3.9753    1.2195    0.1294 C   0  0  0  0  0  0  0  0  0  0  0  0
    2.7230    1.7995    0.1117 O   0  0  0  0  0  0  0  0  0  0  0  0
    1.4936    1.3997   -0.2495 C   0  0  0  0  0  0  0  0  0  0  0  0
    1.1147    0.1857   -0.7723 C   0  0  0  0  0  0  0  0  0  0  0  0
   -0.1976   -0.1138   -1.1061 C   0  0  0  0  0  0  0  0  0  0  0  0
   -1.1872    0.8097   -0.9240 C   0  0  0  0  0  0  0  0  0  0  0  0
   -0.8506    2.0288   -0.4072 C   0  0  0  0  0  0  0  0  0  0  0  0
    0.4490    2.3224   -0.0773 C   0  0  0  0  0  0  0  0  0  0  0  0
   -2.6173    0.5581   -1.2595 C   0  0  0  0  0  0  0  0  0  0  0  0
   -3.2449   -0.0213   -0.0057 C   0  0  0  0  0  0  0  0  0  0  0  0
   -4.7139   -0.3185   -0.2334 C   0  0  1  0  0  0  0  0  0  0  0  0
   -5.2675   -0.8841    1.0355 C   0  0  0  0  0  0  0  0  0  0  0  0
   -6.7296   -1.2326    0.9661 C   0  0  0  0  0  0  0  0  0  0  0  0
   -7.7922    0.1643    0.5917 P   0  0  0  0  0  0  0  0  0  0  0  0
   -7.3519    1.4453    1.2332 O   0  0  0  0  0  0  0  0  0  0  0  0
   -9.3340   -0.1721    1.2552 O   0  0  0  0  0  0  0  0  0  0  0  0
   -8.0723    0.3412   -1.0846 O   0  0  0  0  0  0  0  0  0  0  0  0
   -5.3216    0.9679   -0.5650 N   0  0  0  0  0  0  0  0  0  0  0  0
   -4.7686   -1.2913   -1.3866 C   0  0  0  0  0  0  0  0  0  0  0  0
    9.4185    0.8173   -0.2889 H   0  0  0  0  0  0  0  0  0  0  0  0
    7.6893    1.1800   -0.3228 H   0  0  0  0  0  0  0  0  0  0  0  0
    8.4796    0.0916   -1.6037 H   0  0  0  0  0  0  0  0  0  0  0  0
    8.0553   -0.4172    1.3944 H   0  0  0  0  0  0  0  0  0  0  0  0
    9.2224   -1.3393    0.3682 H   0  0  0  0  0  0  0  0  0  0  0  0
    7.5078   -2.1878   -1.0618 H   0  0  0  0  0  0  0  0  0  0  0  0
    7.1679   -2.6119    0.6195 H   0  0  0  0  0  0  0  0  0  0  0  0
    5.1380   -1.9311   -0.5621 H   0  0  0  0  0  0  0  0  0  0  0  0
    5.9336   -0.3310   -1.0088 H   0  0  0  0  0  0  0  0  0  0  0  0
    5.3578   -1.4625    1.7924 H   0  0  0  0  0  0  0  0  0  0  0  0
    6.1010    0.1326    1.5090 H   0  0  0  0  0  0  0  0  0  0  0  0
    3.2538   -0.6704    0.8260 H   0  0  0  0  0  0  0  0  0  0  0  0
    3.8022    0.4557    2.0890 H   0  0  0  0  0  0  0  0  0  0  0  0
    4.7020    2.0289    0.4088 H   0  0  0  0  0  0  0  0  0  0  0  0
    4.2500    0.9401   -0.9255 H   0  0  0  0  0  0  0  0  0  0  0  0
    1.8368   -0.5685   -0.9532 H   0  0  0  0  0  0  0  0  0  0  0  0
   -0.4744   -1.0797   -1.5173 H   0  0  0  0  0  0  0  0  0  0  0  0
   -1.6186    2.7772   -0.2542 H   0  0  0  0  0  0  0  0  0  0  0  0
    0.6511    3.3123    0.3303 H   0  0  0  0  0  0  0  0  0  0  0  0
   -3.0721    1.5199   -1.5607 H   0  0  0  0  0  0  0  0  0  0  0  0
   -2.7181   -0.1393   -2.1155 H   0  0  0  0  0  0  0  0  0  0  0  0
   -3.0521    0.5863    0.8794 H   0  0  0  0  0  0  0  0  0  0  0  0
   -2.7153   -0.9939    0.1745 H   0  0  0  0  0  0  0  0  0  0  0  0
   -4.7290   -1.8209    1.2537 H   0  0  0  0  0  0  0  0  0  0  0  0
   -5.0765   -0.1797    1.8464 H   0  0  0  0  0  0  0  0  0  0  0  0
   -7.0022   -1.5873    1.9875 H   0  0  0  0  0  0  0  0  0  0  0  0
   -6.9386   -2.0537    0.2792 H   0  0  0  0  0  0  0  0  0  0  0  0
   -9.8788    0.6531    1.3160 H   0  0  0  0  0  0  0  0  0  0  0  0
   -8.2357    1.2605   -1.3498 H   0  0  0  0  0  0  0  0  0  0  0  0
   -5.3126    1.1483   -1.5895 H   0  0  0  0  0  0  0  0  0  0  0  0
   -4.8943    1.7248    0.0067 H   0  0  0  0  0  0  0  0  0  0  0  0
   -3.8269   -1.8922   -1.4471 H   0  0  0  0  0  0  0  0  0  0  0  0
   -4.8224   -0.6905   -2.3177 H   0  0  0  0  0  0  0  0  0  0  0  0
   -5.5813   -2.0243   -1.2949 H   0  0  0  0  0  0  0  0  0  0  0  0
  1  2  1  0
  2  3  1  0
  3  4  1  0
  4  5  1  0
  5  6  1  0
  6  7  1  0
  7  8  1  0
  8  9  1  0
  9 10  2  0
 10 11  1  0
 11 12  2  0
 12 13  1  0
 13 14  2  0
 12 15  1  0
 15 16  1  0
 16 17  1  0
 17 18  1  0
 18 19  1  0
 19 20  1  0
 20 21  2  0
 20 22  1  0
 20 23  1  0
 17 24  1  6
 17 25  1  0
 14  9  1  0
  1 26  1  0
  1 27  1  0
  1 28  1  0
  2 29  1  0
  2 30  1  0
  3 31  1  0
  3 32  1  0
  4 33  1  0
  4 34  1  0
  5 35  1  0
  5 36  1  0
  6 37  1  0
  6 38  1  0
  7 39  1  0
  7 40  1  0
 10 41  1  0
 11 42  1  0
 13 43  1  0
 14 44  1  0
 15 45  1  0
 15 46  1  0
 16 47  1  0
 16 48  1  0
 18 49  1  0
 18 50  1  0
 19 51  1  0
 19 52  1  0
 22 53  1  0
 23 54  1  0
 24 55  1  0
 24 56  1  0
 25 57  1  0
 25 58  1  0
 25 59  1  0
M  END
>  <Ligand ID>  (1) 
LIG0004301

>  <Ligand>  (1) 
CHEMBL1086170

>  <SMILES>  (1) 
CCCCCCCOc1ccc(cc1)CC[C@@](CCP(=O)(O)O)(N)C

>  <CID>  (1) 
46881875.0

>  <ChEMBL ID>  (1) 
nan

>  <InChiKey>  (1) 
CKQNWRXINGQZFU-IBGZPJMESA-N

>  <InChi>  (1) 
InChI=1S/C19H34NO4P/c1-3-4-5-6-7-15-24-18-10-8-17(9-11-18)12-13-19(2,20)14-16-25(21,22)23/h8-11H,3-7,12-16,20H2,1-2H3,(H2,21,22,23)/t19-/m0/s1

>  <IUPAC Name>  (1) 
[(3S)-3-amino-5-(4-heptoxyphenyl)-3-methylpentyl]phosphonic acid

$$$$
