
     RDKit          3D

 23 23  0  0  0  0  0  0  0  0999 V2000
    3.1060   -0.2109   -0.5499 C   0  0  0  0  0  0  0  0  0  0  0  0
    1.6334    0.1548   -0.6527 C   0  0  1  0  0  0  0  0  0  0  0  0
    0.7739   -0.7713    0.1821 C   0  0  0  0  0  0  0  0  0  0  0  0
   -0.6681   -0.4169    0.0844 C   0  0  0  0  0  0  0  0  0  0  0  0
   -1.3799   -1.0425   -0.9367 C   0  0  0  0  0  0  0  0  0  0  0  0
   -2.7338   -0.7611   -1.0909 C   0  0  0  0  0  0  0  0  0  0  0  0
   -3.3692    0.1305   -0.2402 C   0  0  0  0  0  0  0  0  0  0  0  0
   -2.6438    0.7418    0.7683 C   0  0  0  0  0  0  0  0  0  0  0  0
   -1.2819    0.4733    0.9411 C   0  0  0  0  0  0  0  0  0  0  0  0
    1.4272    1.5188   -0.1741 N   0  0  0  0  0  0  0  0  0  0  0  0
    3.5361    0.3501    0.3096 H   0  0  0  0  0  0  0  0  0  0  0  0
    3.6423    0.1964   -1.4495 H   0  0  0  0  0  0  0  0  0  0  0  0
    3.2873   -1.2747   -0.3909 H   0  0  0  0  0  0  0  0  0  0  0  0
    1.3155    0.0723   -1.7137 H   0  0  0  0  0  0  0  0  0  0  0  0
    1.0356   -0.6538    1.2545 H   0  0  0  0  0  0  0  0  0  0  0  0
    0.9550   -1.8283   -0.0662 H   0  0  0  0  0  0  0  0  0  0  0  0
   -0.8762   -1.7509   -1.6130 H   0  0  0  0  0  0  0  0  0  0  0  0
   -3.2606   -1.2675   -1.8991 H   0  0  0  0  0  0  0  0  0  0  0  0
   -4.4268    0.3458   -0.3660 H   0  0  0  0  0  0  0  0  0  0  0  0
   -3.0860    1.4462    1.4624 H   0  0  0  0  0  0  0  0  0  0  0  0
   -0.7079    0.9437    1.7230 H   0  0  0  0  0  0  0  0  0  0  0  0
    2.2436    2.1164   -0.4902 H   0  0  0  0  0  0  0  0  0  0  0  0
    1.4782    1.4877    0.8733 H   0  0  0  0  0  0  0  0  0  0  0  0
  1  2  1  0
  2  3  1  0
  3  4  1  0
  4  5  2  0
  5  6  1  0
  6  7  2  0
  7  8  1  0
  8  9  2  0
  2 10  1  0
  9  4  1  0
  1 11  1  0
  1 12  1  0
  1 13  1  0
  2 14  1  6
  3 15  1  0
  3 16  1  0
  5 17  1  0
  6 18  1  0
  7 19  1  0
  8 20  1  0
  9 21  1  0
 10 22  1  0
 10 23  1  0
M  END
>  <Ligand ID>  (1) 
LIG0001095

>  <Ligand>  (1) 
dexamfetamine

>  <SMILES>  (1) 
C[C@@H](Cc1ccccc1)N

>  <CID>  (1) 
5826.0

>  <ChEMBL ID>  (1) 
nan

>  <InChiKey>  (1) 
KWTSXDURSIMDCE-QMMMGPOBSA-N

>  <InChi>  (1) 
InChI=1S/C9H13N/c1-8(10)7-9-5-3-2-4-6-9/h2-6,8H,7,10H2,1H3/t8-/m0/s1

>  <IUPAC Name>  (1) 
(2S)-1-phenylpropan-2-amine

$$$$
