
     RDKit          3D

 51 53  0  0  0  0  0  0  0  0999 V2000
   -4.4143    3.4724    1.9556 C   0  0  0  0  0  0  0  0  0  0  0  0
   -4.4443    1.8418    2.7823 S   0  0  0  0  0  0  0  0  0  0  0  0
   -4.7354    0.6106    1.5128 C   0  0  0  0  0  0  0  0  0  0  0  0
   -6.0236    0.3109    1.2504 N   0  0  0  0  0  0  0  0  0  0  0  0
   -6.3547   -0.6063    0.3091 C   0  0  0  0  0  0  0  0  0  0  0  0
   -7.7114   -0.9385    0.0155 N   0  0  0  0  0  0  0  0  0  0  0  0
   -5.3031   -1.2056   -0.3547 C   0  0  0  0  0  0  0  0  0  0  0  0
   -3.9757   -0.8968   -0.0845 C   0  0  0  0  0  0  0  0  0  0  0  0
   -3.7072    0.0144    0.8530 N   0  0  0  0  0  0  0  0  0  0  0  0
   -3.2688   -1.6767   -0.9229 N   0  0  0  0  0  0  0  0  0  0  0  0
   -4.0868   -2.4326   -1.6777 C   0  0  0  0  0  0  0  0  0  0  0  0
   -5.3625   -2.1390   -1.3234 N   0  0  0  0  0  0  0  0  0  0  0  0
   -1.8444   -1.7037   -1.0058 C   0  0  2  0  0  0  0  0  0  0  0  0
   -1.2022   -1.6396    0.2262 O   0  0  0  0  0  0  0  0  0  0  0  0
    0.1440   -1.5259   -0.1267 C   0  0  1  0  0  0  0  0  0  0  0  0
    0.1965   -0.6412   -1.3429 C   0  0  2  0  0  0  0  0  0  0  0  0
   -1.2680   -0.4874   -1.6996 C   0  0  1  0  0  0  0  0  0  0  0  0
   -1.4691   -0.5324   -3.0754 O   0  0  0  0  0  0  0  0  0  0  0  0
    0.8156   -1.3286   -2.3832 O   0  0  0  0  0  0  0  0  0  0  0  0
    0.9962   -0.9042    0.9417 C   0  0  0  0  0  0  0  0  0  0  0  0
    2.3338   -0.8228    0.5161 O   0  0  0  0  0  0  0  0  0  0  0  0
    3.3198   -0.1341    1.6759 P   0  0  0  0  0  0  0  0  0  0  0  0
    4.5666   -1.0008    1.8405 O   0  0  0  0  0  0  0  0  0  0  0  0
    3.8058    1.4344    1.2156 O   0  0  0  0  0  0  0  0  0  0  0  0
    5.5022    1.4933    1.0495 P   0  0  0  0  0  0  0  0  0  0  0  0
    6.1509    0.4767    1.9701 O   0  0  0  0  0  0  0  0  0  0  0  0
    5.8310    1.0990   -0.5773 O   0  0  0  0  0  0  0  0  0  0  0  0
    7.4935    1.0513   -0.8668 P   0  0  0  0  0  0  0  0  0  0  0  0
    8.2598    0.5190    0.3169 O   0  0  0  0  0  0  0  0  0  0  0  0
    7.7304    0.0704   -2.2446 O   0  0  0  0  0  0  0  0  0  0  0  0
    7.9920    2.6096   -1.2893 O   0  0  0  0  0  0  0  0  0  0  0  0
    6.0805    3.0159    1.4488 O   0  0  0  0  0  0  0  0  0  0  0  0
    2.5637    0.0015    3.1670 O   0  0  0  0  0  0  0  0  0  0  0  0
   -3.6512    3.4061    1.1405 H   0  0  0  0  0  0  0  0  0  0  0  0
   -5.3841    3.6983    1.4655 H   0  0  0  0  0  0  0  0  0  0  0  0
   -4.1376    4.2713    2.6629 H   0  0  0  0  0  0  0  0  0  0  0  0
   -8.1382   -1.8082    0.4499 H   0  0  0  0  0  0  0  0  0  0  0  0
   -8.2702   -0.3217   -0.6243 H   0  0  0  0  0  0  0  0  0  0  0  0
   -3.7687   -3.1560   -2.4426 H   0  0  0  0  0  0  0  0  0  0  0  0
   -1.4397   -2.5851   -1.5344 H   0  0  0  0  0  0  0  0  0  0  0  0
    0.4985   -2.5556   -0.3384 H   0  0  0  0  0  0  0  0  0  0  0  0
    0.6784    0.3356   -1.1400 H   0  0  0  0  0  0  0  0  0  0  0  0
   -1.7393    0.4055   -1.2371 H   0  0  0  0  0  0  0  0  0  0  0  0
   -1.5241    0.3843   -3.4490 H   0  0  0  0  0  0  0  0  0  0  0  0
    1.2002   -2.1887   -2.1187 H   0  0  0  0  0  0  0  0  0  0  0  0
    0.9845   -1.4740    1.8961 H   0  0  0  0  0  0  0  0  0  0  0  0
    0.6514    0.1258    1.1651 H   0  0  0  0  0  0  0  0  0  0  0  0
    8.0674   -0.8195   -1.9353 H   0  0  0  0  0  0  0  0  0  0  0  0
    7.9011    2.8042   -2.2492 H   0  0  0  0  0  0  0  0  0  0  0  0
    7.0064    2.9583    1.8241 H   0  0  0  0  0  0  0  0  0  0  0  0
    2.4545   -0.8856    3.6256 H   0  0  0  0  0  0  0  0  0  0  0  0
  1  2  1  0
  2  3  1  0
  3  4  2  0
  4  5  1  0
  5  6  1  0
  5  7  2  0
  7  8  1  0
  8  9  2  0
  8 10  1  0
 10 11  1  0
 11 12  2  0
 10 13  1  0
 13 14  1  0
 14 15  1  0
 15 16  1  0
 16 17  1  0
 17 18  1  0
 16 19  1  0
 15 20  1  0
 20 21  1  0
 21 22  1  0
 22 23  2  0
 22 24  1  0
 24 25  1  0
 25 26  2  0
 25 27  1  0
 27 28  1  0
 28 29  2  0
 28 30  1  0
 28 31  1  0
 25 32  1  0
 22 33  1  0
  9  3  1  0
 17 13  1  0
 12  7  1  0
  1 34  1  0
  1 35  1  0
  1 36  1  0
  6 37  1  0
  6 38  1  0
 11 39  1  0
 13 40  1  6
 15 41  1  6
 16 42  1  1
 17 43  1  1
 18 44  1  0
 19 45  1  0
 20 46  1  0
 20 47  1  0
 30 48  1  0
 31 49  1  0
 32 50  1  0
 33 51  1  0
M  END
>  <Ligand ID>  (1) 
LIG0002034

>  <Ligand>  (1) 
2MeSATP

>  <SMILES>  (1) 
CSc1nc(N)c2c(n1)n(cn2)[C@@H]1O[C@@H]([C@H]([C@H]1O)O)COP(=O)(OP(=O)(OP(=O)(O)O)O)O

>  <CID>  (1) 
5310983.0

>  <ChEMBL ID>  (1) 
nan

>  <InChiKey>  (1) 
XNOBOKJVOTYSJV-KQYNXXCUSA-N

>  <InChi>  (1) 
InChI=1S/C11H18N5O13P3S/c1-33-11-14-8(12)5-9(15-11)16(3-13-5)10-7(18)6(17)4(27-10)2-26-31(22,23)29-32(24,25)28-30(19,20)21/h3-4,6-7,10,17-18H,2H2,1H3,(H,22,23)(H,24,25)(H2,12,14,15)(H2,19,20,21)/t4-,6-,7-,10-/m1/s1

>  <IUPAC Name>  (1) 
[[(2R,3S,4R,5R)-5-(6-amino-2-methylsulfanylpurin-9-yl)-3,4-dihydroxyoxolan-2-yl]methoxy-hydroxyphosphoryl] phosphono hydrogen phosphate

$$$$
