
     RDKit          3D

 36 39  0  0  0  0  0  0  0  0999 V2000
    6.6739    2.4617    0.9610 Br  0  0  0  0  0  0  0  0  0  0  0  0
    5.0615    1.5073    0.5346 C   0  0  0  0  0  0  0  0  0  0  0  0
    4.9168    0.8604   -0.6805 C   0  0  0  0  0  0  0  0  0  0  0  0
    3.7403    0.1686   -0.9820 C   0  0  0  0  0  0  0  0  0  0  0  0
    2.7430    0.1618   -0.0224 C   0  0  0  0  0  0  0  0  0  0  0  0
    2.8947    0.8155    1.1998 C   0  0  0  0  0  0  0  0  0  0  0  0
    4.0645    1.4986    1.4897 C   0  0  0  0  0  0  0  0  0  0  0  0
    1.4962   -0.5135   -0.2207 N   0  0  0  0  0  0  0  0  0  0  0  0
    1.3041   -1.7765   -0.5974 N   0  0  0  0  0  0  0  0  0  0  0  0
   -0.0345   -1.9876   -0.6568 C   0  0  0  0  0  0  0  0  0  0  0  0
   -0.6995   -0.8293   -0.3093 C   0  0  0  0  0  0  0  0  0  0  0  0
    0.2925    0.0892   -0.0375 C   0  0  0  0  0  0  0  0  0  0  0  0
   -2.0739   -0.7292   -0.2742 C   0  0  0  0  0  0  0  0  0  0  0  0
   -2.7726   -1.8308   -0.5994 N   0  0  0  0  0  0  0  0  0  0  0  0
   -2.1451   -2.9386   -0.9317 N   0  0  0  0  0  0  0  0  0  0  0  0
   -0.8189   -3.0909   -0.9824 C   0  0  0  0  0  0  0  0  0  0  0  0
   -0.1397   -4.3553   -1.3616 C   0  0  0  0  0  0  0  0  0  0  0  0
   -2.7840    0.4877    0.0931 C   0  0  0  0  0  0  0  0  0  0  0  0
   -2.4625    1.7358   -0.3961 C   0  0  0  0  0  0  0  0  0  0  0  0
   -3.1653    2.8699   -0.0156 C   0  0  0  0  0  0  0  0  0  0  0  0
   -4.2157    2.7807    0.8711 C   0  0  0  0  0  0  0  0  0  0  0  0
   -4.5563    1.5444    1.3738 C   0  0  0  0  0  0  0  0  0  0  0  0
   -3.8433    0.4272    0.9820 C   0  0  0  0  0  0  0  0  0  0  0  0
   -6.0134    1.4528    2.5981 Br  0  0  0  0  0  0  0  0  0  0  0  0
    5.7364    0.8938   -1.4107 H   0  0  0  0  0  0  0  0  0  0  0  0
    3.5994   -0.3432   -1.9173 H   0  0  0  0  0  0  0  0  0  0  0  0
    2.1085    0.8037    1.9428 H   0  0  0  0  0  0  0  0  0  0  0  0
    4.1454    1.9928    2.4467 H   0  0  0  0  0  0  0  0  0  0  0  0
    0.1589    1.1165    0.2713 H   0  0  0  0  0  0  0  0  0  0  0  0
   -0.7371   -5.2438   -1.1451 H   0  0  0  0  0  0  0  0  0  0  0  0
    0.8272   -4.4764   -0.7967 H   0  0  0  0  0  0  0  0  0  0  0  0
    0.1009   -4.3998   -2.4449 H   0  0  0  0  0  0  0  0  0  0  0  0
   -1.6605    1.8512   -1.0850 H   0  0  0  0  0  0  0  0  0  0  0  0
   -2.8664    3.8324   -0.4351 H   0  0  0  0  0  0  0  0  0  0  0  0
   -4.7206    3.6998    1.1258 H   0  0  0  0  0  0  0  0  0  0  0  0
   -4.1550   -0.5368    1.4124 H   0  0  0  0  0  0  0  0  0  0  0  0
  1  2  1  0
  2  3  2  0
  3  4  1  0
  4  5  2  0
  5  6  1  0
  6  7  2  0
  5  8  1  0
  8  9  1  0
  9 10  2  0
 10 11  1  0
 11 12  2  0
 11 13  1  0
 13 14  2  0
 14 15  1  0
 15 16  2  0
 16 17  1  0
 13 18  1  0
 18 19  2  0
 19 20  1  0
 20 21  2  0
 21 22  1  0
 22 23  2  0
 22 24  1  0
  7  2  1  0
 12  8  1  0
 23 18  1  0
 16 10  1  0
  3 25  1  0
  4 26  1  0
  6 27  1  0
  7 28  1  0
 12 29  1  0
 17 30  1  0
 17 31  1  0
 17 32  1  0
 19 33  1  0
 20 34  1  0
 21 35  1  0
 23 36  1  0
M  END
>  <Ligand ID>  (1) 
LIG0003979

>  <Ligand>  (1) 
MLS000544662

>  <SMILES>  (1) 
Brc1ccc(cc1)n1nc2c(c1)c(nnc2C)c1cccc(c1)Br

>  <CID>  (1) 
1214668.0

>  <ChEMBL ID>  (1) 
nan

>  <InChiKey>  (1) 
SRFXJTJKQWBUMX-UHFFFAOYSA-N

>  <InChi>  (1) 
InChI=1S/C18H12Br2N4/c1-11-17-16(10-24(23-17)15-7-5-13(19)6-8-15)18(22-21-11)12-3-2-4-14(20)9-12/h2-10H,1H3

>  <IUPAC Name>  (1) 
4-(3-bromophenyl)-2-(4-bromophenyl)-7-methylpyrazolo[3,4-d]pyridazine

$$$$
