
     RDKit          3D

 55 58  0  0  0  0  0  0  0  0999 V2000
   -5.4902   -3.0107    2.0147 C   0  0  0  0  0  0  0  0  0  0  0  0
   -4.9427   -2.2242    0.9993 O   0  0  0  0  0  0  0  0  0  0  0  0
   -3.8713   -2.5618    0.1976 C   0  0  0  0  0  0  0  0  0  0  0  0
   -3.1852   -3.7699    0.3130 C   0  0  0  0  0  0  0  0  0  0  0  0
   -2.1064   -4.0431   -0.5377 C   0  0  0  0  0  0  0  0  0  0  0  0
   -1.7208   -3.1088   -1.4967 C   0  0  0  0  0  0  0  0  0  0  0  0
   -2.3895   -1.9201   -1.6161 C   0  0  0  0  0  0  0  0  0  0  0  0
   -3.4621   -1.6616   -0.7617 C   0  0  0  0  0  0  0  0  0  0  0  0
   -2.0658   -0.8617   -2.5980 C   0  0  0  0  0  0  0  0  0  0  0  0
   -1.1050    0.1253   -2.0871 C   0  0  0  0  0  0  0  0  0  0  0  0
   -1.6039    1.3552   -1.6651 C   0  0  0  0  0  0  0  0  0  0  0  0
   -0.8008    2.3489   -1.1649 C   0  0  0  0  0  0  0  0  0  0  0  0
    0.5269    2.0870   -1.0935 N   0  0  0  0  0  0  0  0  0  0  0  0
    1.0269    0.9317   -1.4859 N   0  0  0  0  0  0  0  0  0  0  0  0
    0.2419   -0.0617   -1.9834 C   0  0  0  0  0  0  0  0  0  0  0  0
    0.7404   -1.1518   -2.3501 O   0  0  0  0  0  0  0  0  0  0  0  0
    2.4413    0.6543   -1.4208 C   0  0  0  0  0  0  0  0  0  0  0  0
    2.8783    0.0367   -0.1535 C   0  0  0  0  0  0  0  0  0  0  0  0
    2.0058   -0.1864    0.7161 O   0  0  0  0  0  0  0  0  0  0  0  0
    4.2344   -0.2717    0.0251 N   0  0  0  0  0  0  0  0  0  0  0  0
    4.8215   -0.8608    1.1646 C   0  0  0  0  0  0  0  0  0  0  0  0
    4.1448   -1.2540    2.2936 C   0  0  0  0  0  0  0  0  0  0  0  0
    4.8047   -1.8283    3.3883 C   0  0  0  0  0  0  0  0  0  0  0  0
    6.1715   -2.0227    3.3745 C   0  0  0  0  0  0  0  0  0  0  0  0
    6.8436   -1.6269    2.2404 C   0  0  0  0  0  0  0  0  0  0  0  0
    6.1888   -1.0629    1.1676 C   0  0  0  0  0  0  0  0  0  0  0  0
    7.1220   -2.7990    4.8331 Br  0  0  0  0  0  0  0  0  0  0  0  0
   -1.2895    3.6444   -0.7157 C   0  0  0  0  0  0  0  0  0  0  0  0
   -2.6238    4.0054   -0.7492 C   0  0  0  0  0  0  0  0  0  0  0  0
   -3.0758    5.2402   -0.3195 C   0  0  0  0  0  0  0  0  0  0  0  0
   -2.1829    6.1624    0.1645 C   0  0  0  0  0  0  0  0  0  0  0  0
   -0.8440    5.8109    0.2024 C   0  0  0  0  0  0  0  0  0  0  0  0
   -0.4105    4.5872   -0.2254 C   0  0  0  0  0  0  0  0  0  0  0  0
   -6.5854   -2.8361    2.0760 H   0  0  0  0  0  0  0  0  0  0  0  0
   -5.3694   -4.0734    1.7557 H   0  0  0  0  0  0  0  0  0  0  0  0
   -5.0048   -2.7952    2.9995 H   0  0  0  0  0  0  0  0  0  0  0  0
   -3.5004   -4.4902    1.0697 H   0  0  0  0  0  0  0  0  0  0  0  0
   -1.6001   -4.9935   -0.4145 H   0  0  0  0  0  0  0  0  0  0  0  0
   -0.8991   -3.3255   -2.1427 H   0  0  0  0  0  0  0  0  0  0  0  0
   -4.0041   -0.7170   -0.8466 H   0  0  0  0  0  0  0  0  0  0  0  0
   -2.9878   -0.3448   -2.9580 H   0  0  0  0  0  0  0  0  0  0  0  0
   -1.6323   -1.3210   -3.5195 H   0  0  0  0  0  0  0  0  0  0  0  0
   -2.6647    1.5296   -1.7361 H   0  0  0  0  0  0  0  0  0  0  0  0
    2.7243    0.0627   -2.3152 H   0  0  0  0  0  0  0  0  0  0  0  0
    2.9833    1.6271   -1.5510 H   0  0  0  0  0  0  0  0  0  0  0  0
    4.8773   -0.0365   -0.7823 H   0  0  0  0  0  0  0  0  0  0  0  0
    3.0933   -1.1447    2.3942 H   0  0  0  0  0  0  0  0  0  0  0  0
    4.2748   -2.1388    4.2778 H   0  0  0  0  0  0  0  0  0  0  0  0
    7.9098   -1.7573    2.1796 H   0  0  0  0  0  0  0  0  0  0  0  0
    6.7931   -0.7787    0.3130 H   0  0  0  0  0  0  0  0  0  0  0  0
   -3.3689    3.3204   -1.1191 H   0  0  0  0  0  0  0  0  0  0  0  0
   -4.1382    5.4844   -0.3635 H   0  0  0  0  0  0  0  0  0  0  0  0
   -2.4735    7.1524    0.5182 H   0  0  0  0  0  0  0  0  0  0  0  0
   -0.1064    6.5107    0.5776 H   0  0  0  0  0  0  0  0  0  0  0  0
    0.6565    4.3636   -0.1725 H   0  0  0  0  0  0  0  0  0  0  0  0
  1  2  1  0
  2  3  1  0
  3  4  2  0
  4  5  1  0
  5  6  2  0
  6  7  1  0
  7  8  2  0
  7  9  1  0
  9 10  1  0
 10 11  2  0
 11 12  1  0
 12 13  2  0
 13 14  1  0
 14 15  1  0
 15 16  2  0
 14 17  1  0
 17 18  1  0
 18 19  2  0
 18 20  1  0
 20 21  1  0
 21 22  2  0
 22 23  1  0
 23 24  2  0
 24 25  1  0
 25 26  2  0
 24 27  1  0
 12 28  1  0
 28 29  2  0
 29 30  1  0
 30 31  2  0
 31 32  1  0
 32 33  2  0
  8  3  1  0
 15 10  1  0
 26 21  1  0
 33 28  1  0
  1 34  1  0
  1 35  1  0
  1 36  1  0
  4 37  1  0
  5 38  1  0
  6 39  1  0
  8 40  1  0
  9 41  1  0
  9 42  1  0
 11 43  1  0
 17 44  1  0
 17 45  1  0
 20 46  1  0
 22 47  1  0
 23 48  1  0
 25 49  1  0
 26 50  1  0
 29 51  1  0
 30 52  1  0
 31 53  1  0
 32 54  1  0
 33 55  1  0
M  END
>  <Ligand ID>  (1) 
LIG0004840

>  <Ligand>  (1) 
CHEMBL2391258

>  <SMILES>  (1) 
COc1cccc(c1)Cc1cc(nn(c1=O)CC(=O)Nc1ccc(cc1)Br)c1ccccc1

>  <CID>  (1) 
71698531.0

>  <ChEMBL ID>  (1) 
nan

>  <InChiKey>  (1) 
FQGGSTQSDVYXIC-UHFFFAOYSA-N

>  <InChi>  (1) 
InChI=1S/C26H22BrN3O3/c1-33-23-9-5-6-18(15-23)14-20-16-24(19-7-3-2-4-8-19)29-30(26(20)32)17-25(31)28-22-12-10-21(27)11-13-22/h2-13,15-16H,14,17H2,1H3,(H,28,31)

>  <IUPAC Name>  (1) 
N-(4-bromophenyl)-2-[5-[(3-methoxyphenyl)methyl]-6-oxo-3-phenylpyridazin-1-yl]acetamide

$$$$
