
     RDKit          3D

 63 69  0  0  0  0  0  0  0  0999 V2000
    0.9113   -1.9044    2.4775 C   0  0  0  0  0  0  0  0  0  0  0  0
    0.5115   -2.0711    1.1804 O   0  0  0  0  0  0  0  0  0  0  0  0
   -0.1317   -0.9822    0.6082 C   0  0  2  0  0  0  0  0  0  0  0  0
   -0.5650   -1.3553   -0.8005 C   0  0  0  0  0  0  0  0  0  0  0  0
   -1.0990   -0.1503   -1.5255 C   0  0  0  0  0  0  0  0  0  0  0  0
   -1.1930    1.0033   -0.5479 C   0  0  2  0  0  0  0  0  0  0  0  0
    0.1946    1.3426   -0.1988 C   0  0  0  0  0  0  0  0  0  0  0  0
    0.8663    0.1561    0.4714 C   0  0  2  0  0  0  0  0  0  0  0  0
    2.0270   -0.3093   -0.3729 C   0  0  0  0  0  0  0  0  0  0  0  0
    2.6273   -1.3818    0.2241 O   0  0  0  0  0  0  0  0  0  0  0  0
    3.7048   -1.9263   -0.4199 C   0  0  0  0  0  0  0  0  0  0  0  0
    4.7498   -0.8697   -0.5429 C   0  0  0  0  0  0  0  0  0  0  0  0
    4.8160   -0.0204   -1.6352 C   0  0  0  0  0  0  0  0  0  0  0  0
    5.7978    0.9592   -1.7324 C   0  0  0  0  0  0  0  0  0  0  0  0
    6.7147    1.0675   -0.7053 C   0  0  0  0  0  0  0  0  0  0  0  0
    6.6640    0.2411    0.3751 C   0  0  0  0  0  0  0  0  0  0  0  0
    5.6949   -0.7322    0.4800 C   0  0  0  0  0  0  0  0  0  0  0  0
   -2.0030    0.5274    0.6465 C   0  0  2  0  0  0  0  0  0  0  0  0
   -1.3255   -0.6168    1.4003 C   0  0  1  0  0  0  0  0  0  0  0  0
   -2.2918   -1.6487    1.4167 O   0  0  0  0  0  0  0  0  0  0  0  0
   -3.3200   -1.4218    0.5109 C   0  0  0  0  0  0  0  0  0  0  0  0
   -3.1377   -0.1671    0.0167 C   0  0  0  0  0  0  0  0  0  0  0  0
   -3.8837    0.4886   -0.9096 C   0  0  0  0  0  0  0  0  0  0  0  0
   -3.4495    1.8169   -1.3777 C   0  0  0  0  0  0  0  0  0  0  0  0
   -1.9932    2.1447   -1.1063 C   0  0  1  0  0  0  0  0  0  0  0  0
   -2.0342    3.1926   -0.1122 N   0  0  0  0  0  0  0  0  0  0  0  0
   -2.7682    2.8513    1.0525 C   0  0  0  0  0  0  0  0  0  0  0  0
   -2.3219    1.5750    1.6377 C   0  0  0  0  0  0  0  0  0  0  0  0
   -4.9776   -0.2053   -1.4122 C   0  0  0  0  0  0  0  0  0  0  0  0
   -5.2319   -1.5022   -0.9461 C   0  0  0  0  0  0  0  0  0  0  0  0
   -4.4116   -2.1132    0.0092 C   0  0  0  0  0  0  0  0  0  0  0  0
   -4.6507   -3.3949    0.4774 O   0  0  0  0  0  0  0  0  0  0  0  0
    1.6048   -1.1065    2.7079 H   0  0  0  0  0  0  0  0  0  0  0  0
    0.0470   -1.8061    3.1872 H   0  0  0  0  0  0  0  0  0  0  0  0
    1.3917   -2.8776    2.7964 H   0  0  0  0  0  0  0  0  0  0  0  0
    0.2710   -1.8398   -1.3570 H   0  0  0  0  0  0  0  0  0  0  0  0
   -1.3312   -2.1473   -0.7026 H   0  0  0  0  0  0  0  0  0  0  0  0
   -1.9850   -0.3613   -2.1055 H   0  0  0  0  0  0  0  0  0  0  0  0
   -0.3191    0.1819   -2.2761 H   0  0  0  0  0  0  0  0  0  0  0  0
    0.7497    1.5430   -1.1381 H   0  0  0  0  0  0  0  0  0  0  0  0
    0.3200    2.2238    0.4579 H   0  0  0  0  0  0  0  0  0  0  0  0
    1.2269    0.4344    1.4629 H   0  0  0  0  0  0  0  0  0  0  0  0
    2.7691    0.5460   -0.3842 H   0  0  0  0  0  0  0  0  0  0  0  0
    1.7958   -0.4891   -1.4237 H   0  0  0  0  0  0  0  0  0  0  0  0
    4.1117   -2.7176    0.2433 H   0  0  0  0  0  0  0  0  0  0  0  0
    3.4659   -2.3707   -1.4069 H   0  0  0  0  0  0  0  0  0  0  0  0
    4.0996   -0.1126   -2.4271 H   0  0  0  0  0  0  0  0  0  0  0  0
    5.8392    1.6238   -2.6005 H   0  0  0  0  0  0  0  0  0  0  0  0
    7.5093    1.8164   -0.7232 H   0  0  0  0  0  0  0  0  0  0  0  0
    7.3710    0.2881    1.2176 H   0  0  0  0  0  0  0  0  0  0  0  0
    5.6362   -1.4077    1.3410 H   0  0  0  0  0  0  0  0  0  0  0  0
   -1.0844   -0.2852    2.4404 H   0  0  0  0  0  0  0  0  0  0  0  0
   -4.1419    2.5697   -0.9687 H   0  0  0  0  0  0  0  0  0  0  0  0
   -3.6224    1.9127   -2.5046 H   0  0  0  0  0  0  0  0  0  0  0  0
   -1.5486    2.5611   -2.0116 H   0  0  0  0  0  0  0  0  0  0  0  0
   -1.1408    3.6531    0.0621 H   0  0  0  0  0  0  0  0  0  0  0  0
   -3.8712    2.9105    0.9378 H   0  0  0  0  0  0  0  0  0  0  0  0
   -2.5414    3.6585    1.8098 H   0  0  0  0  0  0  0  0  0  0  0  0
   -3.0707    1.1524    2.3559 H   0  0  0  0  0  0  0  0  0  0  0  0
   -1.3754    1.7820    2.2053 H   0  0  0  0  0  0  0  0  0  0  0  0
   -5.5957    0.2775   -2.1452 H   0  0  0  0  0  0  0  0  0  0  0  0
   -6.0978   -2.0551   -1.3402 H   0  0  0  0  0  0  0  0  0  0  0  0
   -4.9739   -4.1515   -0.0981 H   0  0  0  0  0  0  0  0  0  0  0  0
  1  2  1  0
  3  2  1  1
  3  4  1  0
  4  5  1  0
  6  5  1  6
  6  7  1  0
  7  8  1  0
  8  9  1  0
  9 10  1  0
 10 11  1  0
 11 12  1  0
 12 13  2  0
 13 14  1  0
 14 15  2  0
 15 16  1  0
 16 17  2  0
  6 18  1  0
 18 19  1  0
 19 20  1  0
 20 21  1  0
 21 22  2  0
 22 23  1  0
 23 24  1  0
 24 25  1  0
 25 26  1  0
 26 27  1  0
 27 28  1  0
 23 29  2  0
 29 30  1  0
 30 31  2  0
 31 32  1  0
  8  3  1  0
 17 12  1  0
 18 28  1  1
 19  3  1  0
 31 21  1  0
 25  6  1  0
 22 18  1  0
  1 33  1  0
  1 34  1  0
  1 35  1  0
  4 36  1  0
  4 37  1  0
  5 38  1  0
  5 39  1  0
  7 40  1  0
  7 41  1  0
  8 42  1  1
  9 43  1  0
  9 44  1  0
 11 45  1  0
 11 46  1  0
 13 47  1  0
 14 48  1  0
 15 49  1  0
 16 50  1  0
 17 51  1  0
 19 52  1  1
 24 53  1  0
 24 54  1  0
 25 55  1  6
 26 56  1  0
 27 57  1  0
 27 58  1  0
 28 59  1  0
 28 60  1  0
 29 61  1  0
 30 62  1  0
 32 63  1  0
M  END
>  <Ligand ID>  (1) 
LIG0004695

>  <Ligand>  (1) 
SCHEMBL878409

>  <SMILES>  (1) 
CO[C@]12CC[C@]3(C[C@@H]1COCc1ccccc1)[C@@]14[C@H]2Oc2c4c(C[C@H]3NCC1)ccc2O

>  <CID>  (1) 
66826937.0

>  <ChEMBL ID>  (1) 
nan

>  <InChiKey>  (1) 
ADMSKYBLTWMPPO-QGUHJXFESA-N

>  <InChi>  (1) 
InChI=1S/C27H31NO4/c1-30-27-10-9-25(14-19(27)16-31-15-17-5-3-2-4-6-17)21-13-18-7-8-20(29)23-22(18)26(25,11-12-28-21)24(27)32-23/h2-8,19,21,24,28-29H,9-16H2,1H3/t19-,21-,24-,25-,26+,27-/m1/s1

>  <IUPAC Name>  (1) 
(1S,2S,6R,14R,15R,16R)-15-methoxy-16-(phenylmethoxymethyl)-13-oxa-5-azahexacyclo[13.2.2.12,8.01,6.02,14.012,20]icosa-8(20),9,11-trien-11-ol

$$$$
