
     RDKit          3D

 17 16  0  0  0  0  0  0  0  0999 V2000
   -0.5033    0.2043    1.4677 C   0  0  0  0  0  0  0  0  0  0  0  0
   -0.2748   -0.5354    0.1976 C   0  0  0  0  0  0  0  0  0  0  0  0
   -1.5685   -0.5394   -0.5447 C   0  0  0  0  0  0  0  0  0  0  0  0
   -2.1561   -1.6306   -0.8538 O   0  0  0  0  0  0  0  0  0  0  0  0
   -2.1388    0.6603   -0.9029 O   0  0  0  0  0  0  0  0  0  0  0  0
    0.7290    0.0795   -0.7319 C   0  0  0  0  0  0  0  0  0  0  0  0
    2.1072    0.2201   -0.1559 C   0  0  0  0  0  0  0  0  0  0  0  0
   -1.3648    0.9283    1.3679 H   0  0  0  0  0  0  0  0  0  0  0  0
   -0.8027   -0.5139    2.2645 H   0  0  0  0  0  0  0  0  0  0  0  0
    0.3636    0.7736    1.8496 H   0  0  0  0  0  0  0  0  0  0  0  0
    0.0428   -1.5667    0.4545 H   0  0  0  0  0  0  0  0  0  0  0  0
   -2.8889    0.7424   -1.5973 H   0  0  0  0  0  0  0  0  0  0  0  0
    0.7573   -0.5975   -1.6266 H   0  0  0  0  0  0  0  0  0  0  0  0
    0.3246    1.0316   -1.1297 H   0  0  0  0  0  0  0  0  0  0  0  0
    2.5418    1.1953   -0.4982 H   0  0  0  0  0  0  0  0  0  0  0  0
    2.1069    0.1906    0.9574 H   0  0  0  0  0  0  0  0  0  0  0  0
    2.7247   -0.6426   -0.5182 H   0  0  0  0  0  0  0  0  0  0  0  0
  1  2  1  0
  2  3  1  0
  3  4  2  0
  3  5  1  0
  2  6  1  0
  6  7  1  0
  1  8  1  0
  1  9  1  0
  1 10  1  0
  2 11  1  0
  5 12  1  0
  6 13  1  0
  6 14  1  0
  7 15  1  0
  7 16  1  0
  7 17  1  0
M  END
>  <Ligand ID>  (1) 
LIG0000730

>  <Ligand>  (1) 
2-methylbutanoic acid

>  <SMILES>  (1) 
CC(C(=O)O)CC

>  <CID>  (1) 
8314.0

>  <ChEMBL ID>  (1) 
nan

>  <InChiKey>  (1) 
WLAMNBDJUVNPJU-UHFFFAOYSA-N

>  <InChi>  (1) 
InChI=1S/C5H10O2/c1-3-4(2)5(6)7/h4H,3H2,1-2H3,(H,6,7)

>  <IUPAC Name>  (1) 
2-methylbutanoic acid

$$$$
