
     RDKit          3D

 46 47  0  0  0  0  0  0  0  0999 V2000
   -2.1529    2.1750    2.6866 O   0  0  0  0  0  0  0  0  0  0  0  0
   -2.3221    1.1486    1.7708 C   0  0  2  0  0  0  0  0  0  0  0  0
   -1.4529    1.3248    0.5434 C   0  0  1  0  0  0  0  0  0  0  0  0
   -0.0031    1.0398    0.8312 C   0  0  0  0  0  0  0  0  0  0  0  0
    0.7706    0.9650   -0.2991 O   0  0  0  0  0  0  0  0  0  0  0  0
    2.3894    0.6452    0.0549 P   0  0  0  0  0  0  0  0  0  0  0  0
    3.1745    1.9559    0.1211 O   0  0  0  0  0  0  0  0  0  0  0  0
    3.0945   -0.2815   -1.1367 O   0  0  0  0  0  0  0  0  0  0  0  0
    4.4023   -1.1942   -0.5962 P   0  0  0  0  0  0  0  0  0  0  0  0
    4.7152   -2.2205   -1.6688 O   0  0  0  0  0  0  0  0  0  0  0  0
    5.8268   -0.0941   -0.4395 C   0  0  0  0  0  0  0  0  0  0  0  0
    7.3987   -0.9786   -0.3548 P   0  0  0  0  0  0  0  0  0  0  0  0
    7.3247   -2.2242    0.4849 O   0  0  0  0  0  0  0  0  0  0  0  0
    8.0019   -1.2756   -1.9101 O   0  0  0  0  0  0  0  0  0  0  0  0
    8.5237    0.0483    0.4196 O   0  0  0  0  0  0  0  0  0  0  0  0
    5.8816    1.0530   -1.7835 Cl  0  0  0  0  0  0  0  0  0  0  0  0
    5.6149    0.8240    1.0883 Cl  0  0  0  0  0  0  0  0  0  0  0  0
    4.0753   -2.0173    0.8290 O   0  0  0  0  0  0  0  0  0  0  0  0
    2.5758   -0.1160    1.5387 O   0  0  0  0  0  0  0  0  0  0  0  0
   -2.0301    0.3298   -0.2633 O   0  0  0  0  0  0  0  0  0  0  0  0
   -3.3405    0.7664   -0.3031 C   0  0  2  0  0  0  0  0  0  0  0  0
   -3.6949    1.1737    1.1303 C   0  0  2  0  0  0  0  0  0  0  0  0
   -4.1870    2.4568    1.0866 O   0  0  0  0  0  0  0  0  0  0  0  0
   -4.2925   -0.2435   -0.6887 N   0  0  0  0  0  0  0  0  0  0  0  0
   -5.5210    0.1752   -1.0558 C   0  0  0  0  0  0  0  0  0  0  0  0
   -6.5285   -0.6686   -1.4468 C   0  0  0  0  0  0  0  0  0  0  0  0
   -8.2646   -0.0336   -1.9624 Br  0  0  0  0  0  0  0  0  0  0  0  0
   -6.2299   -2.0287   -1.4529 C   0  0  0  0  0  0  0  0  0  0  0  0
   -7.1287   -2.8485   -1.8068 O   0  0  0  0  0  0  0  0  0  0  0  0
   -4.9894   -2.4446   -1.0817 N   0  0  0  0  0  0  0  0  0  0  0  0
   -4.0307   -1.5618   -0.7036 C   0  0  0  0  0  0  0  0  0  0  0  0
   -2.8952   -1.9572   -0.3650 O   0  0  0  0  0  0  0  0  0  0  0  0
   -1.5304    1.8267    3.3749 H   0  0  0  0  0  0  0  0  0  0  0  0
   -2.1859    0.1531    2.1890 H   0  0  0  0  0  0  0  0  0  0  0  0
   -1.6188    2.2794    0.0379 H   0  0  0  0  0  0  0  0  0  0  0  0
    0.3556    1.8564    1.4903 H   0  0  0  0  0  0  0  0  0  0  0  0
    0.0839    0.1170    1.4272 H   0  0  0  0  0  0  0  0  0  0  0  0
    7.3802   -0.9095   -2.5983 H   0  0  0  0  0  0  0  0  0  0  0  0
    8.2054    0.9974    0.3979 H   0  0  0  0  0  0  0  0  0  0  0  0
    4.8551   -2.0794    1.4343 H   0  0  0  0  0  0  0  0  0  0  0  0
    1.9828   -0.8968    1.6523 H   0  0  0  0  0  0  0  0  0  0  0  0
   -3.4098    1.6035   -1.0072 H   0  0  0  0  0  0  0  0  0  0  0  0
   -4.3859    0.4482    1.6050 H   0  0  0  0  0  0  0  0  0  0  0  0
   -3.8689    2.9514    0.2929 H   0  0  0  0  0  0  0  0  0  0  0  0
   -5.7543    1.2392   -1.0509 H   0  0  0  0  0  0  0  0  0  0  0  0
   -4.8148   -3.4798   -1.1035 H   0  0  0  0  0  0  0  0  0  0  0  0
  1  2  1  0
  2  3  1  0
  3  4  1  0
  4  5  1  0
  5  6  1  0
  6  7  2  0
  6  8  1  0
  8  9  1  0
  9 10  2  0
  9 11  1  0
 11 12  1  0
 12 13  2  0
 12 14  1  0
 12 15  1  0
 11 16  1  0
 11 17  1  0
  9 18  1  0
  6 19  1  0
  3 20  1  0
 20 21  1  0
 21 22  1  0
 22 23  1  0
 21 24  1  0
 24 25  1  0
 25 26  2  0
 26 27  1  0
 26 28  1  0
 28 29  2  0
 28 30  1  0
 30 31  1  0
 31 32  2  0
 22  2  1  0
 31 24  1  0
  1 33  1  0
  2 34  1  1
  3 35  1  6
  4 36  1  0
  4 37  1  0
 14 38  1  0
 15 39  1  0
 18 40  1  0
 19 41  1  0
 21 42  1  6
 22 43  1  1
 23 44  1  0
 25 45  1  0
 30 46  1  0
M  END
>  <Ligand ID>  (1) 
LIG0002449

>  <Ligand>  (1) 
CHEMBL217467

>  <SMILES>  (1) 
O[C@@H]1[C@@H](COP(=O)(OP(=O)(C(P(=O)(O)O)(Cl)Cl)O)O)O[C@H]([C@@H]1O)n1cc(Br)c(=O)[nH]c1=O

>  <CID>  (1) 
11993891.0

>  <ChEMBL ID>  (1) 
nan

>  <InChiKey>  (1) 
KMOKHPPESJJVPB-UAKXSSHOSA-N

>  <InChi>  (1) 
InChI=1S/C10H14BrCl2N2O14P3/c11-3-1-15(9(19)14-7(3)18)8-6(17)5(16)4(28-8)2-27-32(25,26)29-31(23,24)10(12,13)30(20,21)22/h1,4-6,8,16-17H,2H2,(H,23,24)(H,25,26)(H,14,18,19)(H2,20,21,22)/t4-,5-,6-,8-/m1/s1

>  <IUPAC Name>  (1) 
[[[[(2R,3S,4R,5R)-5-(5-bromo-2,4-dioxopyrimidin-1-yl)-3,4-dihydroxyoxolan-2-yl]methoxy-hydroxyphosphoryl]oxy-hydroxyphosphoryl]-dichloromethyl]phosphonic acid

$$$$
