
     RDKit          3D

 20 19  0  0  0  0  0  0  0  0999 V2000
   -2.9104   -0.7768    0.1441 C   0  0  0  0  0  0  0  0  0  0  0  0
   -1.5467   -0.5550   -0.5230 C   0  0  0  0  0  0  0  0  0  0  0  0
   -1.0052    0.7389    0.0511 C   0  0  0  0  0  0  0  0  0  0  0  0
    0.3309    1.0988   -0.5035 C   0  0  0  0  0  0  0  0  0  0  0  0
    1.3738    0.1039   -0.2554 C   0  0  0  0  0  0  0  0  0  0  0  0
    2.4877    0.3885    0.4328 C   0  0  0  0  0  0  0  0  0  0  0  0
    3.5250   -0.5729    0.6884 C   0  0  0  0  0  0  0  0  0  0  0  0
    4.5819   -0.3433    1.3288 O   0  0  0  0  0  0  0  0  0  0  0  0
   -3.1336   -1.8596    0.2306 H   0  0  0  0  0  0  0  0  0  0  0  0
   -3.6542   -0.2622   -0.4947 H   0  0  0  0  0  0  0  0  0  0  0  0
   -2.8380   -0.3827    1.1644 H   0  0  0  0  0  0  0  0  0  0  0  0
   -0.9392   -1.4282   -0.2095 H   0  0  0  0  0  0  0  0  0  0  0  0
   -1.6995   -0.5437   -1.5988 H   0  0  0  0  0  0  0  0  0  0  0  0
   -1.7145    1.5584   -0.1703 H   0  0  0  0  0  0  0  0  0  0  0  0
   -1.0060    0.6244    1.1506 H   0  0  0  0  0  0  0  0  0  0  0  0
    0.6390    2.0533   -0.0255 H   0  0  0  0  0  0  0  0  0  0  0  0
    0.2410    1.2376   -1.5932 H   0  0  0  0  0  0  0  0  0  0  0  0
    1.2911   -0.9061   -0.6171 H   0  0  0  0  0  0  0  0  0  0  0  0
    2.5982    1.4120    0.8136 H   0  0  0  0  0  0  0  0  0  0  0  0
    3.3787   -1.5853    0.2917 H   0  0  0  0  0  0  0  0  0  0  0  0
  1  2  1  0
  2  3  1  0
  3  4  1  0
  4  5  1  0
  5  6  2  0
  6  7  1  0
  7  8  2  0
  1  9  1  0
  1 10  1  0
  1 11  1  0
  2 12  1  0
  2 13  1  0
  3 14  1  0
  3 15  1  0
  4 16  1  0
  4 17  1  0
  5 18  1  0
  6 19  1  0
  7 20  1  0
M  END
>  <Ligand ID>  (1) 
LIG0000252

>  <Ligand>  (1) 
2-Heptenal

>  <SMILES>  (1) 
CCCC/C=C/C=O

>  <CID>  (1) 
5283316.0

>  <ChEMBL ID>  (1) 
nan

>  <InChiKey>  (1) 
NDFKTBCGKNOHPJ-AATRIKPKSA-N

>  <InChi>  (1) 
InChI=1S/C7H12O/c1-2-3-4-5-6-7-8/h5-7H,2-4H2,1H3/b6-5+

>  <IUPAC Name>  (1) 
(E)-hept-2-enal

$$$$
