
     RDKit          3D

 84 87  0  0  0  0  0  0  0  0999 V2000
   -4.9948   -2.6229    1.5063 N   0  0  0  0  0  0  0  0  0  0  0  0
   -4.9239   -3.0946    0.1795 C   0  0  0  0  0  0  0  0  0  0  0  0
   -5.9977   -3.4084   -0.4256 O   0  0  0  0  0  0  0  0  0  0  0  0
   -3.6701   -3.2602   -0.5901 C   0  0  0  0  0  0  0  0  0  0  0  0
   -2.4405   -2.9015    0.2159 C   0  0  1  0  0  0  0  0  0  0  0  0
   -2.4514   -1.4956    0.6789 C   0  0  0  0  0  0  0  0  0  0  0  0
   -2.4517   -1.2017    1.9188 O   0  0  0  0  0  0  0  0  0  0  0  0
   -2.4608   -0.3967   -0.2560 N   0  0  0  0  0  0  0  0  0  0  0  0
   -2.4660    0.9682    0.1827 C   0  0  1  0  0  0  0  0  0  0  0  0
   -1.2883    1.7757   -0.1066 C   0  0  0  0  0  0  0  0  0  0  0  0
   -1.3908    3.0213    0.2305 O   0  0  0  0  0  0  0  0  0  0  0  0
   -0.0692    1.4063   -0.6917 N   0  0  0  0  0  0  0  0  0  0  0  0
    0.4219    0.0973   -1.1510 C   0  0  0  0  0  0  0  0  0  0  0  0
    1.7268    0.0509   -0.3291 C   0  0  2  0  0  0  0  0  0  0  0  0
    2.1705    1.4849   -0.3251 C   0  0  0  0  0  0  0  0  0  0  0  0
    1.0858    2.2735   -1.0227 C   0  0  2  0  0  0  0  0  0  0  0  0
    0.9550    3.6723   -0.5213 C   0  0  0  0  0  0  0  0  0  0  0  0
    2.2189    4.4272   -0.9191 C   0  0  0  0  0  0  0  0  0  0  0  0
    2.1732    5.8567   -0.4510 C   0  0  0  0  0  0  0  0  0  0  0  0
    2.0543    5.9793    0.9709 N   0  0  0  0  0  0  0  0  0  0  0  0
    1.0208    6.4101    1.6102 C   0  0  0  0  0  0  0  0  0  0  0  0
   -0.1778    6.8354    0.9806 N   0  0  0  0  0  0  0  0  0  0  0  0
    1.1460    6.4397    3.0449 N   0  0  0  0  0  0  0  0  0  0  0  0
    2.6379   -0.8420   -0.8281 O   0  0  0  0  0  0  0  0  0  0  0  0
    2.7806   -1.8614    0.1417 C   0  0  0  0  0  0  0  0  0  0  0  0
    3.7582   -2.8653   -0.3409 C   0  0  0  0  0  0  0  0  0  0  0  0
    3.3159   -3.9588   -1.0923 C   0  0  0  0  0  0  0  0  0  0  0  0
    4.2792   -4.8545   -1.5082 C   0  0  0  0  0  0  0  0  0  0  0  0
    5.6114   -4.7344   -1.2323 C   0  0  0  0  0  0  0  0  0  0  0  0
    6.0325   -3.6443   -0.4863 C   0  0  0  0  0  0  0  0  0  0  0  0
    5.1009   -2.7274   -0.0525 C   0  0  0  0  0  0  0  0  0  0  0  0
    7.3745   -3.5062   -0.1975 C   0  0  0  0  0  0  0  0  0  0  0  0
    8.3052   -4.4055   -0.6203 C   0  0  0  0  0  0  0  0  0  0  0  0
    7.9046   -5.5091   -1.3717 C   0  0  0  0  0  0  0  0  0  0  0  0
    6.5633   -5.6567   -1.6663 C   0  0  0  0  0  0  0  0  0  0  0  0
   -3.6674    1.7180   -0.4058 C   0  0  0  0  0  0  0  0  0  0  0  0
   -4.9567    1.1337   -0.0085 C   0  0  0  0  0  0  0  0  0  0  0  0
   -5.6237    0.1549   -0.7096 C   0  0  0  0  0  0  0  0  0  0  0  0
   -6.8318   -0.2853   -0.2014 C   0  0  0  0  0  0  0  0  0  0  0  0
   -7.3941    0.1965    0.9516 C   0  0  0  0  0  0  0  0  0  0  0  0
   -6.7341    1.1660    1.6471 C   0  0  0  0  0  0  0  0  0  0  0  0
   -5.5309    1.6243    1.1672 C   0  0  0  0  0  0  0  0  0  0  0  0
   -2.4100   -3.7542    1.3965 N   0  0  0  0  0  0  0  0  0  0  0  0
   -4.8836   -3.2570    2.3441 H   0  0  0  0  0  0  0  0  0  0  0  0
   -5.1631   -1.6114    1.7640 H   0  0  0  0  0  0  0  0  0  0  0  0
   -3.7539   -2.5436   -1.4554 H   0  0  0  0  0  0  0  0  0  0  0  0
   -3.5743   -4.3001   -0.9725 H   0  0  0  0  0  0  0  0  0  0  0  0
   -1.5221   -3.1266   -0.3667 H   0  0  0  0  0  0  0  0  0  0  0  0
   -2.4820   -0.5786   -1.3039 H   0  0  0  0  0  0  0  0  0  0  0  0
   -2.5849    0.9164    1.3051 H   0  0  0  0  0  0  0  0  0  0  0  0
    0.7425    0.1436   -2.2204 H   0  0  0  0  0  0  0  0  0  0  0  0
   -0.2144   -0.7389   -0.9155 H   0  0  0  0  0  0  0  0  0  0  0  0
    1.3634   -0.2776    0.6893 H   0  0  0  0  0  0  0  0  0  0  0  0
    3.1624    1.6140   -0.8016 H   0  0  0  0  0  0  0  0  0  0  0  0
    2.1542    1.8362    0.7414 H   0  0  0  0  0  0  0  0  0  0  0  0
    1.2041    2.2242   -2.1296 H   0  0  0  0  0  0  0  0  0  0  0  0
    0.0848    4.2099   -0.9613 H   0  0  0  0  0  0  0  0  0  0  0  0
    0.8905    3.6734    0.5780 H   0  0  0  0  0  0  0  0  0  0  0  0
    2.3130    4.4352   -2.0131 H   0  0  0  0  0  0  0  0  0  0  0  0
    3.0865    3.9350   -0.4777 H   0  0  0  0  0  0  0  0  0  0  0  0
    1.3900    6.4480   -0.9931 H   0  0  0  0  0  0  0  0  0  0  0  0
    3.1338    6.3244   -0.7595 H   0  0  0  0  0  0  0  0  0  0  0  0
   -0.7834    7.4922    1.5197 H   0  0  0  0  0  0  0  0  0  0  0  0
   -0.4299    6.4998    0.0240 H   0  0  0  0  0  0  0  0  0  0  0  0
    2.0526    6.7693    3.4575 H   0  0  0  0  0  0  0  0  0  0  0  0
    0.3953    6.1555    3.6865 H   0  0  0  0  0  0  0  0  0  0  0  0
    3.1618   -1.4323    1.0974 H   0  0  0  0  0  0  0  0  0  0  0  0
    1.8125   -2.3309    0.3941 H   0  0  0  0  0  0  0  0  0  0  0  0
    2.2600   -4.0797   -1.3272 H   0  0  0  0  0  0  0  0  0  0  0  0
    3.9246   -5.7068   -2.0952 H   0  0  0  0  0  0  0  0  0  0  0  0
    5.4693   -1.8939    0.5252 H   0  0  0  0  0  0  0  0  0  0  0  0
    7.6647   -2.6311    0.3940 H   0  0  0  0  0  0  0  0  0  0  0  0
    9.3568   -4.3020   -0.3968 H   0  0  0  0  0  0  0  0  0  0  0  0
    8.6580   -6.2181   -1.7022 H   0  0  0  0  0  0  0  0  0  0  0  0
    6.2181   -6.5015   -2.2473 H   0  0  0  0  0  0  0  0  0  0  0  0
   -3.5646    2.7664   -0.0553 H   0  0  0  0  0  0  0  0  0  0  0  0
   -3.5510    1.6604   -1.5173 H   0  0  0  0  0  0  0  0  0  0  0  0
   -5.1818   -0.2255   -1.6183 H   0  0  0  0  0  0  0  0  0  0  0  0
   -7.3880   -1.0577   -0.7282 H   0  0  0  0  0  0  0  0  0  0  0  0
   -8.3442   -0.1865    1.3027 H   0  0  0  0  0  0  0  0  0  0  0  0
   -7.1629    1.5522    2.5515 H   0  0  0  0  0  0  0  0  0  0  0  0
   -5.0285    2.3929    1.7371 H   0  0  0  0  0  0  0  0  0  0  0  0
   -3.1055   -4.5204    1.3480 H   0  0  0  0  0  0  0  0  0  0  0  0
   -2.4864   -3.2340    2.2858 H   0  0  0  0  0  0  0  0  0  0  0  0
  1  2  1  0
  2  3  2  0
  2  4  1  0
  4  5  1  0
  5  6  1  0
  6  7  2  0
  6  8  1  0
  8  9  1  0
  9 10  1  0
 10 11  2  0
 10 12  1  0
 12 13  1  0
 13 14  1  0
 14 15  1  0
 15 16  1  0
 16 17  1  0
 17 18  1  0
 18 19  1  0
 19 20  1  0
 20 21  2  3
 21 22  1  0
 21 23  1  0
 14 24  1  0
 24 25  1  0
 25 26  1  0
 26 27  2  0
 27 28  1  0
 28 29  2  0
 29 30  1  0
 30 31  2  0
 30 32  1  0
 32 33  2  0
 33 34  1  0
 34 35  2  0
  9 36  1  0
 36 37  1  0
 37 38  2  0
 38 39  1  0
 39 40  2  0
 40 41  1  0
 41 42  2  0
  5 43  1  0
 16 12  1  0
 31 26  1  0
 42 37  1  0
 35 29  1  0
  1 44  1  0
  1 45  1  0
  4 46  1  0
  4 47  1  0
  5 48  1  6
  8 49  1  0
  9 50  1  1
 13 51  1  0
 13 52  1  0
 14 53  1  1
 15 54  1  0
 15 55  1  0
 16 56  1  6
 17 57  1  0
 17 58  1  0
 18 59  1  0
 18 60  1  0
 19 61  1  0
 19 62  1  0
 22 63  1  0
 22 64  1  0
 23 65  1  0
 23 66  1  0
 25 67  1  0
 25 68  1  0
 27 69  1  0
 28 70  1  0
 31 71  1  0
 32 72  1  0
 33 73  1  0
 34 74  1  0
 35 75  1  0
 36 76  1  0
 36 77  1  0
 38 78  1  0
 39 79  1  0
 40 80  1  0
 41 81  1  0
 42 82  1  0
 43 83  1  0
 43 84  1  0
M  END
>  <Ligand ID>  (1) 
LIG0002402

>  <Ligand>  (1) 
CHEMBL209622

>  <SMILES>  (1) 
NC(=O)C[C@@H](C(=O)N[C@@H](C(=O)N1C[C@H](C[C@@H]1CCCN=C(N)N)OCc1ccc2c(c1)cccc2)Cc1ccccc1)N

>  <CID>  (1) 
44413830.0

>  <ChEMBL ID>  (1) 
nan

>  <InChiKey>  (1) 
MNJTTYMJKZNPFK-LAJGZZDBSA-N

>  <InChi>  (1) 
InChI=1S/C32H41N7O4/c33-27(18-29(34)40)30(41)38-28(16-21-7-2-1-3-8-21)31(42)39-19-26(17-25(39)11-6-14-37-32(35)36)43-20-22-12-13-23-9-4-5-10-24(23)15-22/h1-5,7-10,12-13,15,25-28H,6,11,14,16-20,33H2,(H2,34,40)(H,38,41)(H4,35,36,37)/t25-,26-,27-,28+/m0/s1

>  <IUPAC Name>  (1) 
(2S)-2-amino-N-[(2R)-1-[(2S,4S)-2-[3-(diaminomethylideneamino)propyl]-4-(naphthalen-2-ylmethoxy)pyrrolidin-1-yl]-1-oxo-3-phenylpropan-2-yl]butanediamide

$$$$
