
     RDKit          3D

 33 34  0  0  0  0  0  0  0  0999 V2000
   -4.0626   -1.7443    1.5747 C   0  0  0  0  0  0  0  0  0  0  0  0
   -2.9006   -1.3870    1.0342 C   0  0  0  0  0  0  0  0  0  0  0  0
   -2.8641   -0.9046   -0.3546 C   0  0  0  0  0  0  0  0  0  0  0  0
   -2.3495    0.4582   -0.5413 C   0  0  0  0  0  0  0  0  0  0  0  0
   -3.2073    1.5139   -0.7929 C   0  0  0  0  0  0  0  0  0  0  0  0
   -2.7666    2.8096   -0.9747 C   0  0  0  0  0  0  0  0  0  0  0  0
   -1.4058    3.0173   -0.8942 C   0  0  0  0  0  0  0  0  0  0  0  0
   -0.4984    2.0245   -0.6491 C   0  0  0  0  0  0  0  0  0  0  0  0
   -0.9792    0.7311   -0.4710 C   0  0  0  0  0  0  0  0  0  0  0  0
   -0.1537   -0.3407   -0.2190 O   0  0  0  0  0  0  0  0  0  0  0  0
    1.2430   -0.1209   -0.1368 C   0  0  0  0  0  0  0  0  0  0  0  0
    2.0294   -1.3716    0.1426 C   0  0  0  0  0  0  0  0  0  0  0  0
    3.4306   -0.9802    0.1935 N   0  0  0  0  0  0  0  0  0  0  0  0
    4.2058   -0.9773   -0.9160 C   0  0  0  0  0  0  0  0  0  0  0  0
    5.4462   -0.5722   -0.5490 N   0  0  0  0  0  0  0  0  0  0  0  0
    5.4280   -0.3325    0.7599 C   0  0  0  0  0  0  0  0  0  0  0  0
    4.1556   -0.5832    1.2650 C   0  0  0  0  0  0  0  0  0  0  0  0
   -4.9562   -1.6683    0.9678 H   0  0  0  0  0  0  0  0  0  0  0  0
   -4.0580   -2.0930    2.5949 H   0  0  0  0  0  0  0  0  0  0  0  0
   -1.9633   -1.4355    1.5817 H   0  0  0  0  0  0  0  0  0  0  0  0
   -3.8923   -0.9427   -0.8174 H   0  0  0  0  0  0  0  0  0  0  0  0
   -2.2596   -1.6360   -0.9678 H   0  0  0  0  0  0  0  0  0  0  0  0
   -4.2824    1.3597   -0.8578 H   0  0  0  0  0  0  0  0  0  0  0  0
   -3.3935    3.6494   -1.1702 H   0  0  0  0  0  0  0  0  0  0  0  0
   -0.9937    4.0257   -1.0306 H   0  0  0  0  0  0  0  0  0  0  0  0
    0.5858    2.1981   -0.5864 H   0  0  0  0  0  0  0  0  0  0  0  0
    1.5772    0.3542   -1.0714 H   0  0  0  0  0  0  0  0  0  0  0  0
    1.3779    0.5534    0.7432 H   0  0  0  0  0  0  0  0  0  0  0  0
    1.8425   -2.0811   -0.6859 H   0  0  0  0  0  0  0  0  0  0  0  0
    1.7091   -1.7914    1.1177 H   0  0  0  0  0  0  0  0  0  0  0  0
    3.9269   -1.2445   -1.9350 H   0  0  0  0  0  0  0  0  0  0  0  0
    6.2426    0.0090    1.4071 H   0  0  0  0  0  0  0  0  0  0  0  0
    3.7862   -0.4973    2.2702 H   0  0  0  0  0  0  0  0  0  0  0  0
  1  2  2  0
  2  3  1  0
  3  4  1  0
  4  5  2  0
  5  6  1  0
  6  7  2  0
  7  8  1  0
  8  9  2  0
  9 10  1  0
 10 11  1  0
 11 12  1  0
 12 13  1  0
 13 14  1  0
 14 15  2  0
 15 16  1  0
 16 17  2  0
  9  4  1  0
 17 13  1  0
  1 18  1  0
  1 19  1  0
  2 20  1  0
  3 21  1  0
  3 22  1  0
  5 23  1  0
  6 24  1  0
  7 25  1  0
  8 26  1  0
 11 27  1  0
 11 28  1  0
 12 29  1  0
 12 30  1  0
 14 31  1  0
 16 32  1  0
 17 33  1  0
M  END
>  <Ligand ID>  (1) 
LIG0005618

>  <Ligand>  (1) 
MLS000099390

>  <SMILES>  (1) 
C=CCc1ccccc1OCCn1cncc1

>  <CID>  (1) 
762621.0

>  <ChEMBL ID>  (1) 
nan

>  <InChiKey>  (1) 
GPTVDKAAFOCJDF-UHFFFAOYSA-N

>  <InChi>  (1) 
InChI=1S/C14H16N2O/c1-2-5-13-6-3-4-7-14(13)17-11-10-16-9-8-15-12-16/h2-4,6-9,12H,1,5,10-11H2

>  <IUPAC Name>  (1) 
1-[2-(2-prop-2-enylphenoxy)ethyl]imidazole

$$$$
