
     RDKit          3D

 54 56  0  0  0  0  0  0  0  0999 V2000
   -0.2212    1.4051   -1.6552 C   0  0  0  0  0  0  0  0  0  0  0  0
    0.2188    1.6597   -0.2742 C   0  0  0  0  0  0  0  0  0  0  0  0
   -0.1053    0.6880    0.8038 C   0  0  0  0  0  0  0  0  0  0  0  0
   -1.4729    0.4448    1.0678 N   0  0  0  0  0  0  0  0  0  0  0  0
   -2.4526   -0.3215    0.4431 C   0  0  0  0  0  0  0  0  0  0  0  0
   -3.6489   -0.2287    1.0109 O   0  0  0  0  0  0  0  0  0  0  0  0
   -2.4870   -1.2057   -0.6763 C   0  0  0  0  0  0  0  0  0  0  0  0
   -2.8972   -2.5379   -0.3806 C   0  0  0  0  0  0  0  0  0  0  0  0
   -3.0036   -3.4785   -1.3696 C   0  0  0  0  0  0  0  0  0  0  0  0
   -2.7191   -3.1724   -2.6826 C   0  0  0  0  0  0  0  0  0  0  0  0
   -2.3243   -1.8821   -2.9529 C   0  0  0  0  0  0  0  0  0  0  0  0
   -2.2328   -0.9916   -1.9556 N   0  0  0  0  0  0  0  0  0  0  0  0
   -1.9846    1.1724    2.2911 C   0  0  0  0  0  0  0  0  0  0  0  0
   -2.5357    2.4782    1.9525 C   0  0  0  0  0  0  0  0  0  0  0  0
   -2.0013    3.7705    1.8845 C   0  0  0  0  0  0  0  0  0  0  0  0
   -2.8126    4.7634    1.5321 C   0  0  0  0  0  0  0  0  0  0  0  0
   -4.1182    4.5382    1.2463 C   0  0  0  0  0  0  0  0  0  0  0  0
   -4.3122    2.7152    1.4800 S   0  0  0  0  0  0  0  0  0  0  0  0
    0.6108   -0.6028    0.4069 C   0  0  0  0  0  0  0  0  0  0  0  0
    0.0203   -1.6973    0.3746 O   0  0  0  0  0  0  0  0  0  0  0  0
    1.9871   -0.5912    0.0602 N   0  0  0  0  0  0  0  0  0  0  0  0
    2.5941   -1.8557   -0.3039 C   0  0  0  0  0  0  0  0  0  0  0  0
    3.7337   -2.1003    0.6843 C   0  0  0  0  0  0  0  0  0  0  0  0
    4.9912   -1.6828   -0.0018 C   0  0  0  0  0  0  0  0  0  0  0  0
    4.5547   -0.9981   -1.2771 C   0  0  0  0  0  0  0  0  0  0  0  0
    3.2979   -1.7610   -1.6342 C   0  0  0  0  0  0  0  0  0  0  0  0
    0.6883    1.0993    2.0536 C   0  0  0  0  0  0  0  0  0  0  0  0
    0.0893    0.4361   -2.0757 H   0  0  0  0  0  0  0  0  0  0  0  0
   -1.2814    1.5767   -1.8604 H   0  0  0  0  0  0  0  0  0  0  0  0
    0.3038    2.1561   -2.3383 H   0  0  0  0  0  0  0  0  0  0  0  0
   -0.0875    2.7128    0.0151 H   0  0  0  0  0  0  0  0  0  0  0  0
    1.3549    1.7587   -0.3180 H   0  0  0  0  0  0  0  0  0  0  0  0
   -3.1306   -2.8310    0.6210 H   0  0  0  0  0  0  0  0  0  0  0  0
   -3.3165   -4.4880   -1.1341 H   0  0  0  0  0  0  0  0  0  0  0  0
   -2.7925   -3.8870   -3.4832 H   0  0  0  0  0  0  0  0  0  0  0  0
   -2.0747   -1.5278   -3.9532 H   0  0  0  0  0  0  0  0  0  0  0  0
   -2.7739    0.5105    2.7684 H   0  0  0  0  0  0  0  0  0  0  0  0
   -1.1766    1.1905    3.0193 H   0  0  0  0  0  0  0  0  0  0  0  0
   -0.9326    3.9055    2.1280 H   0  0  0  0  0  0  0  0  0  0  0  0
   -2.4295    5.8255    1.4626 H   0  0  0  0  0  0  0  0  0  0  0  0
   -4.8818    5.1725    0.9610 H   0  0  0  0  0  0  0  0  0  0  0  0
    2.5893    0.2538    0.0514 H   0  0  0  0  0  0  0  0  0  0  0  0
    1.8744   -2.6977   -0.2658 H   0  0  0  0  0  0  0  0  0  0  0  0
    3.6022   -1.4966    1.5967 H   0  0  0  0  0  0  0  0  0  0  0  0
    3.7341   -3.1729    0.9780 H   0  0  0  0  0  0  0  0  0  0  0  0
    5.6058   -2.5649   -0.3175 H   0  0  0  0  0  0  0  0  0  0  0  0
    5.6233   -1.0033    0.6214 H   0  0  0  0  0  0  0  0  0  0  0  0
    5.3258   -1.0660   -2.0713 H   0  0  0  0  0  0  0  0  0  0  0  0
    4.3036    0.0411   -1.0139 H   0  0  0  0  0  0  0  0  0  0  0  0
    3.5362   -2.7656   -2.0110 H   0  0  0  0  0  0  0  0  0  0  0  0
    2.7210   -1.1916   -2.3899 H   0  0  0  0  0  0  0  0  0  0  0  0
    1.7571    1.1319    1.6689 H   0  0  0  0  0  0  0  0  0  0  0  0
    0.4896    2.0916    2.4143 H   0  0  0  0  0  0  0  0  0  0  0  0
    0.5999    0.3022    2.7985 H   0  0  0  0  0  0  0  0  0  0  0  0
  1  2  1  0
  2  3  1  0
  3  4  1  0
  4  5  1  0
  5  6  2  0
  5  7  1  0
  7  8  2  0
  8  9  1  0
  9 10  2  0
 10 11  1  0
 11 12  2  0
  4 13  1  0
 13 14  1  0
 14 15  2  0
 15 16  1  0
 16 17  2  0
 17 18  1  0
  3 19  1  0
 19 20  2  0
 19 21  1  0
 21 22  1  0
 22 23  1  0
 23 24  1  0
 24 25  1  0
 25 26  1  0
  3 27  1  0
 12  7  1  0
 18 14  1  0
 26 22  1  0
  1 28  1  0
  1 29  1  0
  1 30  1  0
  2 31  1  0
  2 32  1  0
  8 33  1  0
  9 34  1  0
 10 35  1  0
 11 36  1  0
 13 37  1  0
 13 38  1  0
 15 39  1  0
 16 40  1  0
 17 41  1  0
 21 42  1  0
 22 43  1  0
 23 44  1  0
 23 45  1  0
 24 46  1  0
 24 47  1  0
 25 48  1  0
 25 49  1  0
 26 50  1  0
 26 51  1  0
 27 52  1  0
 27 53  1  0
 27 54  1  0
M  END
>  <Ligand ID>  (1) 
LIG0004046

>  <Ligand>  (1) 
MLS000729763

>  <SMILES>  (1) 
CCC(N(C(=O)c1ccccn1)Cc1cccs1)(C(=O)NC1CCCC1)C

>  <CID>  (1) 
3950572.0

>  <ChEMBL ID>  (1) 
nan

>  <InChiKey>  (1) 
GENAWVOEGWVITF-UHFFFAOYSA-N

>  <InChi>  (1) 
InChI=1S/C21H27N3O2S/c1-3-21(2,20(26)23-16-9-4-5-10-16)24(15-17-11-8-14-27-17)19(25)18-12-6-7-13-22-18/h6-8,11-14,16H,3-5,9-10,15H2,1-2H3,(H,23,26)

>  <IUPAC Name>  (1) 
N-[1-(cyclopentylamino)-2-methyl-1-oxobutan-2-yl]-N-(thiophen-2-ylmethyl)pyridine-2-carboxamide

$$$$
