
     RDKit          3D

 67 69  0  0  0  0  0  0  0  0999 V2000
   -6.6151   -0.6173   -1.5605 C   0  0  0  0  0  0  0  0  0  0  0  0
   -5.6848    0.4802   -2.0210 C   0  0  0  0  0  0  0  0  0  0  0  0
   -4.9565    1.4196   -0.6538 S   0  0  0  0  0  0  0  0  0  0  0  0
   -3.9133    0.3239    0.2783 C   0  0  0  0  0  0  0  0  0  0  0  0
   -2.5949    0.2018   -0.1851 C   0  0  0  0  0  0  0  0  0  0  0  0
   -1.6826   -0.6095    0.4477 C   0  0  0  0  0  0  0  0  0  0  0  0
   -2.1328   -1.2921    1.5593 C   0  0  0  0  0  0  0  0  0  0  0  0
   -3.4255   -1.1717    2.0139 C   0  0  0  0  0  0  0  0  0  0  0  0
   -4.3685   -0.3511    1.3814 C   0  0  0  0  0  0  0  0  0  0  0  0
   -5.6900   -0.3078    1.9416 C   0  0  0  0  0  0  0  0  0  0  0  0
   -5.9262   -1.0826    2.9488 O   0  0  0  0  0  0  0  0  0  0  0  0
   -6.7806    0.4652    1.5478 N   0  0  0  0  0  0  0  0  0  0  0  0
   -8.3021    0.3363    2.3949 S   0  0  0  0  0  0  0  0  0  0  0  0
   -9.4041    0.7001    1.4445 O   0  0  0  0  0  0  0  0  0  0  0  0
   -8.4884   -1.0076    3.0105 O   0  0  0  0  0  0  0  0  0  0  0  0
   -8.2983    1.5793    3.6948 C   0  0  0  0  0  0  0  0  0  0  0  0
   -0.3121   -0.7944    0.0041 C   0  0  0  0  0  0  0  0  0  0  0  0
   -0.0869   -0.7165   -1.3585 C   0  0  0  0  0  0  0  0  0  0  0  0
    1.1862   -0.8965   -1.8403 C   0  0  0  0  0  0  0  0  0  0  0  0
    2.2679   -1.1578   -0.9947 C   0  0  0  0  0  0  0  0  0  0  0  0
    2.0373   -1.2342    0.3591 C   0  0  0  0  0  0  0  0  0  0  0  0
    0.7407   -1.0508    0.8570 C   0  0  0  0  0  0  0  0  0  0  0  0
    3.5764   -1.3451   -1.6456 C   0  0  0  0  0  0  0  0  0  0  0  0
    4.2426    0.0262   -1.7782 C   0  0  0  0  0  0  0  0  0  0  0  0
    4.4427    0.6046   -0.5007 N   0  0  0  0  0  0  0  0  0  0  0  0
    5.0584    1.8923   -0.5284 C   0  0  0  0  0  0  0  0  0  0  0  0
    6.5017    1.8087   -0.9244 C   0  0  1  0  0  0  0  0  0  0  0  0
    7.2379    0.8499   -0.0107 C   0  0  0  0  0  0  0  0  0  0  0  0
    6.6589    0.4402    1.1887 C   0  0  0  0  0  0  0  0  0  0  0  0
    7.3847   -0.4491    1.9796 C   0  0  0  0  0  0  0  0  0  0  0  0
    8.6350   -0.9130    1.5955 C   0  0  0  0  0  0  0  0  0  0  0  0
    9.2138   -0.5014    0.3934 C   0  0  0  0  0  0  0  0  0  0  0  0
    8.4799    0.3865   -0.3877 C   0  0  0  0  0  0  0  0  0  0  0  0
    6.6849    1.3025   -2.1934 O   0  0  0  0  0  0  0  0  0  0  0  0
   -4.6461   -0.1427   -2.9307 C   0  0  0  0  0  0  0  0  0  0  0  0
   -6.1962   -1.2184   -0.7313 H   0  0  0  0  0  0  0  0  0  0  0  0
   -7.5760   -0.1792   -1.2258 H   0  0  0  0  0  0  0  0  0  0  0  0
   -6.7879   -1.2827   -2.4356 H   0  0  0  0  0  0  0  0  0  0  0  0
   -6.3071    1.1437   -2.6748 H   0  0  0  0  0  0  0  0  0  0  0  0
   -2.2454    0.7423   -1.0519 H   0  0  0  0  0  0  0  0  0  0  0  0
   -1.4440   -1.9255    2.0702 H   0  0  0  0  0  0  0  0  0  0  0  0
   -3.6762   -1.7541    2.8976 H   0  0  0  0  0  0  0  0  0  0  0  0
   -6.7213    1.1136    0.7733 H   0  0  0  0  0  0  0  0  0  0  0  0
   -9.3069    1.7384    4.0918 H   0  0  0  0  0  0  0  0  0  0  0  0
   -7.9039    2.5388    3.2457 H   0  0  0  0  0  0  0  0  0  0  0  0
   -7.5497    1.3264    4.4856 H   0  0  0  0  0  0  0  0  0  0  0  0
   -0.8818   -0.5179   -2.0577 H   0  0  0  0  0  0  0  0  0  0  0  0
    1.3328   -0.8321   -2.9066 H   0  0  0  0  0  0  0  0  0  0  0  0
    2.8672   -1.4369    1.0106 H   0  0  0  0  0  0  0  0  0  0  0  0
    0.5500   -1.1112    1.9363 H   0  0  0  0  0  0  0  0  0  0  0  0
    4.2112   -1.9691   -0.9728 H   0  0  0  0  0  0  0  0  0  0  0  0
    3.4302   -1.8118   -2.6399 H   0  0  0  0  0  0  0  0  0  0  0  0
    3.5341    0.7263   -2.3270 H   0  0  0  0  0  0  0  0  0  0  0  0
    5.0859   -0.1005   -2.4413 H   0  0  0  0  0  0  0  0  0  0  0  0
    3.5399    0.6437    0.0568 H   0  0  0  0  0  0  0  0  0  0  0  0
    4.9591    2.4186    0.4716 H   0  0  0  0  0  0  0  0  0  0  0  0
    4.5328    2.5821   -1.2634 H   0  0  0  0  0  0  0  0  0  0  0  0
    6.9896    2.8101   -0.7949 H   0  0  0  0  0  0  0  0  0  0  0  0
    5.6943    0.7891    1.5015 H   0  0  0  0  0  0  0  0  0  0  0  0
    6.9240   -0.7621    2.9131 H   0  0  0  0  0  0  0  0  0  0  0  0
    9.1902   -1.6174    2.2352 H   0  0  0  0  0  0  0  0  0  0  0  0
   10.1870   -0.8695    0.1048 H   0  0  0  0  0  0  0  0  0  0  0  0
    8.9599    0.6877   -1.3171 H   0  0  0  0  0  0  0  0  0  0  0  0
    6.8706    1.9731   -2.8729 H   0  0  0  0  0  0  0  0  0  0  0  0
   -4.4270    0.5265   -3.7946 H   0  0  0  0  0  0  0  0  0  0  0  0
   -3.7541   -0.5011   -2.4203 H   0  0  0  0  0  0  0  0  0  0  0  0
   -5.1216   -1.0468   -3.3933 H   0  0  0  0  0  0  0  0  0  0  0  0
  1  2  1  0
  2  3  1  0
  3  4  1  0
  4  5  2  0
  5  6  1  0
  6  7  2  0
  7  8  1  0
  8  9  2  0
  9 10  1  0
 10 11  2  0
 10 12  1  0
 12 13  1  0
 13 14  2  0
 13 15  2  0
 13 16  1  0
  6 17  1  0
 17 18  2  0
 18 19  1  0
 19 20  2  0
 20 21  1  0
 21 22  2  0
 20 23  1  0
 23 24  1  0
 24 25  1  0
 25 26  1  0
 26 27  1  0
 27 28  1  0
 28 29  2  0
 29 30  1  0
 30 31  2  0
 31 32  1  0
 32 33  2  0
 27 34  1  0
  2 35  1  0
  9  4  1  0
 22 17  1  0
 33 28  1  0
  1 36  1  0
  1 37  1  0
  1 38  1  0
  2 39  1  0
  5 40  1  0
  7 41  1  0
  8 42  1  0
 12 43  1  0
 16 44  1  0
 16 45  1  0
 16 46  1  0
 18 47  1  0
 19 48  1  0
 21 49  1  0
 22 50  1  0
 23 51  1  0
 23 52  1  0
 24 53  1  0
 24 54  1  0
 25 55  1  0
 26 56  1  0
 26 57  1  0
 27 58  1  6
 29 59  1  0
 30 60  1  0
 31 61  1  0
 32 62  1  0
 33 63  1  0
 34 64  1  0
 35 65  1  0
 35 66  1  0
 35 67  1  0
M  END
>  <Ligand ID>  (1) 
LIG0001542

>  <Ligand>  (1) 
CHEMBL470856

>  <SMILES>  (1) 
CC(Sc1cc(ccc1C(=O)NS(=O)(=O)C)c1ccc(cc1)CCNC[C@@H](c1ccccc1)O)C

>  <CID>  (1) 
11352782.0

>  <ChEMBL ID>  (1) 
nan

>  <InChiKey>  (1) 
HXFKZSVPCHUKBX-VWLOTQADSA-N

>  <InChi>  (1) 
InChI=1S/C27H32N2O4S2/c1-19(2)34-26-17-23(13-14-24(26)27(31)29-35(3,32)33)21-11-9-20(10-12-21)15-16-28-18-25(30)22-7-5-4-6-8-22/h4-14,17,19,25,28,30H,15-16,18H2,1-3H3,(H,29,31)/t25-/m0/s1

>  <IUPAC Name>  (1) 
4-[4-[2-[[(2R)-2-hydroxy-2-phenylethyl]amino]ethyl]phenyl]-N-methylsulfonyl-2-propan-2-ylsulfanylbenzamide

$$$$
