
     RDKit          3D

 56 59  0  0  0  0  0  0  0  0999 V2000
   -6.8416    2.5949    0.7159 C   0  0  0  0  0  0  0  0  0  0  0  0
   -5.3932    2.6323    0.3956 C   0  0  0  0  0  0  0  0  0  0  0  0
   -4.8747    3.8251   -0.0645 C   0  0  0  0  0  0  0  0  0  0  0  0
   -3.5313    3.9100   -0.3802 C   0  0  0  0  0  0  0  0  0  0  0  0
   -2.7393    2.7716   -0.2187 C   0  0  0  0  0  0  0  0  0  0  0  0
   -3.2806    1.5847    0.2441 C   0  0  0  0  0  0  0  0  0  0  0  0
   -4.6175    1.4945    0.5597 C   0  0  0  0  0  0  0  0  0  0  0  0
   -2.3746    0.4869    0.3579 N   0  0  0  0  0  0  0  0  0  0  0  0
   -1.3054    0.3616    1.1565 C   0  0  0  0  0  0  0  0  0  0  0  0
   -0.7057   -0.8599    0.9230 C   0  0  0  0  0  0  0  0  0  0  0  0
   -1.4653   -1.4614   -0.0496 C   0  0  0  0  0  0  0  0  0  0  0  0
   -2.4840   -0.6214   -0.3855 N   0  0  0  0  0  0  0  0  0  0  0  0
   -1.3148   -2.7622   -0.6789 C   0  0  0  0  0  0  0  0  0  0  0  0
   -1.3929   -2.8948   -2.0488 C   0  0  0  0  0  0  0  0  0  0  0  0
   -1.2801   -4.1378   -2.6574 C   0  0  0  0  0  0  0  0  0  0  0  0
   -1.0832   -5.3008   -1.8994 C   0  0  0  0  0  0  0  0  0  0  0  0
   -1.0076   -5.1583   -0.5438 C   0  0  0  0  0  0  0  0  0  0  0  0
   -1.1221   -3.9073    0.0520 C   0  0  0  0  0  0  0  0  0  0  0  0
    0.5383   -1.3071    1.5816 C   0  0  0  0  0  0  0  0  0  0  0  0
    1.6994   -1.0208    0.7647 N   0  0  0  0  0  0  0  0  0  0  0  0
    2.8919   -1.5341    1.3793 C   0  0  0  0  0  0  0  0  0  0  0  0
    4.1727   -1.0302    0.7366 C   0  0  0  0  0  0  0  0  0  0  0  0
    4.2374    0.4543    0.9062 C   0  0  0  0  0  0  0  0  0  0  0  0
    5.4627    0.9571    0.3151 N   0  0  0  0  0  0  0  0  0  0  0  0
    5.7353    1.3799   -0.9130 C   0  0  0  0  0  0  0  0  0  0  0  0
    7.0550    1.7710   -0.9758 C   0  0  0  0  0  0  0  0  0  0  0  0
    7.5703    1.5640    0.2762 C   0  0  0  0  0  0  0  0  0  0  0  0
    6.5836    1.0663    1.0515 N   0  0  0  0  0  0  0  0  0  0  0  0
   -1.2838    2.8486   -0.5549 C   0  0  0  0  0  0  0  0  0  0  0  0
   -6.9692    2.8888    1.7755 H   0  0  0  0  0  0  0  0  0  0  0  0
   -7.2953    1.5795    0.5577 H   0  0  0  0  0  0  0  0  0  0  0  0
   -7.3924    3.2901    0.0591 H   0  0  0  0  0  0  0  0  0  0  0  0
   -5.4923    4.7171   -0.1904 H   0  0  0  0  0  0  0  0  0  0  0  0
   -3.0536    4.8070   -0.7442 H   0  0  0  0  0  0  0  0  0  0  0  0
   -5.0094    0.5535    0.9179 H   0  0  0  0  0  0  0  0  0  0  0  0
   -0.9473    1.0862    1.8766 H   0  0  0  0  0  0  0  0  0  0  0  0
   -1.5449   -2.0104   -2.6642 H   0  0  0  0  0  0  0  0  0  0  0  0
   -1.3411   -4.2712   -3.7336 H   0  0  0  0  0  0  0  0  0  0  0  0
   -1.0030   -6.2456   -2.4226 H   0  0  0  0  0  0  0  0  0  0  0  0
   -0.8557   -6.0430    0.0662 H   0  0  0  0  0  0  0  0  0  0  0  0
   -1.0565   -3.8976    1.1288 H   0  0  0  0  0  0  0  0  0  0  0  0
    0.6596   -0.7259    2.5471 H   0  0  0  0  0  0  0  0  0  0  0  0
    0.5589   -2.3589    1.8780 H   0  0  0  0  0  0  0  0  0  0  0  0
    1.7169   -0.0705    0.4147 H   0  0  0  0  0  0  0  0  0  0  0  0
    2.8886   -1.2778    2.4658 H   0  0  0  0  0  0  0  0  0  0  0  0
    2.9372   -2.6547    1.3178 H   0  0  0  0  0  0  0  0  0  0  0  0
    4.1749   -1.2591   -0.3639 H   0  0  0  0  0  0  0  0  0  0  0  0
    5.0775   -1.4968    1.1553 H   0  0  0  0  0  0  0  0  0  0  0  0
    3.3768    0.9798    0.4988 H   0  0  0  0  0  0  0  0  0  0  0  0
    4.2300    0.6725    2.0095 H   0  0  0  0  0  0  0  0  0  0  0  0
    5.0140    1.4106   -1.7369 H   0  0  0  0  0  0  0  0  0  0  0  0
    7.6151    2.1715   -1.8273 H   0  0  0  0  0  0  0  0  0  0  0  0
    8.5731    1.7391    0.6677 H   0  0  0  0  0  0  0  0  0  0  0  0
   -0.6795    3.0190    0.3594 H   0  0  0  0  0  0  0  0  0  0  0  0
   -0.9345    1.9482   -1.1136 H   0  0  0  0  0  0  0  0  0  0  0  0
   -1.0967    3.7421   -1.1911 H   0  0  0  0  0  0  0  0  0  0  0  0
  1  2  1  0
  2  3  2  0
  3  4  1  0
  4  5  2  0
  5  6  1  0
  6  7  2  0
  6  8  1  0
  8  9  1  0
  9 10  2  0
 10 11  1  0
 11 12  2  0
 11 13  1  0
 13 14  2  0
 14 15  1  0
 15 16  2  0
 16 17  1  0
 17 18  2  0
 10 19  1  0
 19 20  1  0
 20 21  1  0
 21 22  1  0
 22 23  1  0
 23 24  1  0
 24 25  1  0
 25 26  2  0
 26 27  1  0
 27 28  2  0
  5 29  1  0
  7  2  1  0
 12  8  1  0
 18 13  1  0
 28 24  1  0
  1 30  1  0
  1 31  1  0
  1 32  1  0
  3 33  1  0
  4 34  1  0
  7 35  1  0
  9 36  1  0
 14 37  1  0
 15 38  1  0
 16 39  1  0
 17 40  1  0
 18 41  1  0
 19 42  1  0
 19 43  1  0
 20 44  1  0
 21 45  1  0
 21 46  1  0
 22 47  1  0
 22 48  1  0
 23 49  1  0
 23 50  1  0
 25 51  1  0
 26 52  1  0
 27 53  1  0
 29 54  1  0
 29 55  1  0
 29 56  1  0
M  END
>  <Ligand ID>  (1) 
LIG0003705

>  <Ligand>  (1) 
MLS000732794

>  <SMILES>  (1) 
Cc1ccc(c(c1)n1cc(c(n1)c1ccccc1)CNCCCn1cccn1)C

>  <CID>  (1) 
16190821.0

>  <ChEMBL ID>  (1) 
nan

>  <InChiKey>  (1) 
NRBUOGJEVXEQAN-UHFFFAOYSA-N

>  <InChi>  (1) 
InChI=1S/C24H27N5/c1-19-10-11-20(2)23(16-19)29-18-22(24(27-29)21-8-4-3-5-9-21)17-25-12-6-14-28-15-7-13-26-28/h3-5,7-11,13,15-16,18,25H,6,12,14,17H2,1-2H3

>  <IUPAC Name>  (1) 
N-[[1-(2,5-dimethylphenyl)-3-phenylpyrazol-4-yl]methyl]-3-pyrazol-1-ylpropan-1-amine

$$$$
