
     RDKit          3D

 75 76  0  0  0  0  0  0  0  0999 V2000
   -3.7167    3.6469    1.4221 C   0  0  0  0  0  0  0  0  0  0  0  0
   -4.5871    2.9007    0.0209 S   0  0  0  0  0  0  0  0  0  0  0  0
   -3.3598    2.0642   -1.0327 C   0  0  0  0  0  0  0  0  0  0  0  0
   -4.0480    1.3781   -2.2018 C   0  0  0  0  0  0  0  0  0  0  0  0
   -2.9763    0.6844   -3.0415 C   0  0  1  0  0  0  0  0  0  0  0  0
   -2.0146    1.6696   -3.5668 C   0  0  0  0  0  0  0  0  0  0  0  0
   -2.3916    2.6213   -4.2926 O   0  0  0  0  0  0  0  0  0  0  0  0
   -0.6643    1.4927   -3.2119 O   0  0  0  0  0  0  0  0  0  0  0  0
   -2.3293   -0.3573   -2.2670 N   0  0  0  0  0  0  0  0  0  0  0  0
   -2.7265   -1.7003   -2.2490 C   0  0  0  0  0  0  0  0  0  0  0  0
   -3.7328   -2.0126   -2.9675 O   0  0  0  0  0  0  0  0  0  0  0  0
   -2.0849   -2.7647   -1.4734 C   0  0  2  0  0  0  0  0  0  0  0  0
   -3.0198   -3.0359   -0.2887 C   0  0  0  0  0  0  0  0  0  0  0  0
   -4.3532   -3.4558   -0.6818 C   0  0  0  0  0  0  0  0  0  0  0  0
   -5.3476   -2.4762   -0.8270 C   0  0  0  0  0  0  0  0  0  0  0  0
   -6.6148   -2.8374   -1.1930 C   0  0  0  0  0  0  0  0  0  0  0  0
   -6.9686   -4.1480   -1.4309 C   0  0  0  0  0  0  0  0  0  0  0  0
   -5.9999   -5.1156   -1.2913 C   0  0  0  0  0  0  0  0  0  0  0  0
   -4.7182   -4.7530   -0.9208 C   0  0  0  0  0  0  0  0  0  0  0  0
   -0.7960   -2.3956   -0.9069 N   0  0  0  0  0  0  0  0  0  0  0  0
    0.1502   -3.4092   -0.7182 C   0  0  0  0  0  0  0  0  0  0  0  0
   -0.1946   -4.5938   -1.0491 O   0  0  0  0  0  0  0  0  0  0  0  0
    1.5105   -3.2494   -0.1767 C   0  0  0  0  0  0  0  0  0  0  0  0
    1.8922   -1.9262    0.1773 N   0  0  0  0  0  0  0  0  0  0  0  0
    1.2975   -1.1061    1.1632 C   0  0  0  0  0  0  0  0  0  0  0  0
    0.3140   -1.5641    1.8386 O   0  0  0  0  0  0  0  0  0  0  0  0
    1.7192    0.2726    1.4867 C   0  0  0  0  0  0  0  0  0  0  0  0
    2.8854    0.6467    0.7087 N   0  0  0  0  0  0  0  0  0  0  0  0
    4.1534   -0.0222    0.8654 C   0  0  0  0  0  0  0  0  0  0  0  0
    4.2766   -0.9624    1.7185 O   0  0  0  0  0  0  0  0  0  0  0  0
    5.3155    0.3512    0.0644 C   0  0  2  0  0  0  0  0  0  0  0  0
    6.4629    0.8815    0.9373 C   0  0  0  0  0  0  0  0  0  0  0  0
    5.9540    2.0684    1.6609 C   0  0  0  0  0  0  0  0  0  0  0  0
    5.3520    1.9775    2.9057 C   0  0  0  0  0  0  0  0  0  0  0  0
    4.8993    3.1330    3.5144 C   0  0  0  0  0  0  0  0  0  0  0  0
    5.0115    4.3779    2.9570 C   0  0  0  0  0  0  0  0  0  0  0  0
    5.6132    4.4666    1.7126 C   0  0  0  0  0  0  0  0  0  0  0  0
    6.0640    3.3357    1.1004 C   0  0  0  0  0  0  0  0  0  0  0  0
    4.5601    5.5437    3.5621 O   0  0  0  0  0  0  0  0  0  0  0  0
    5.0723    1.3040   -0.9863 N   0  0  0  0  0  0  0  0  0  0  0  0
   -3.2190    4.5611    1.0625 H   0  0  0  0  0  0  0  0  0  0  0  0
   -2.9336    2.9113    1.7660 H   0  0  0  0  0  0  0  0  0  0  0  0
   -4.4188    3.8002    2.2840 H   0  0  0  0  0  0  0  0  0  0  0  0
   -2.6471    2.8347   -1.3895 H   0  0  0  0  0  0  0  0  0  0  0  0
   -2.7567    1.3458   -0.4278 H   0  0  0  0  0  0  0  0  0  0  0  0
   -4.5060    2.2051   -2.8022 H   0  0  0  0  0  0  0  0  0  0  0  0
   -4.8699    0.7218   -1.9012 H   0  0  0  0  0  0  0  0  0  0  0  0
   -3.5397    0.2340   -3.8777 H   0  0  0  0  0  0  0  0  0  0  0  0
   -0.0432    2.3017   -3.2589 H   0  0  0  0  0  0  0  0  0  0  0  0
   -1.5126   -0.0487   -1.6870 H   0  0  0  0  0  0  0  0  0  0  0  0
   -2.0778   -3.7093   -2.0316 H   0  0  0  0  0  0  0  0  0  0  0  0
   -2.5913   -3.7794    0.4017 H   0  0  0  0  0  0  0  0  0  0  0  0
   -3.0738   -2.0835    0.2829 H   0  0  0  0  0  0  0  0  0  0  0  0
   -5.1200   -1.4201   -0.6474 H   0  0  0  0  0  0  0  0  0  0  0  0
   -7.3445   -2.0455   -1.2941 H   0  0  0  0  0  0  0  0  0  0  0  0
   -7.9898   -4.4354   -1.7251 H   0  0  0  0  0  0  0  0  0  0  0  0
   -6.2648   -6.1347   -1.4707 H   0  0  0  0  0  0  0  0  0  0  0  0
   -3.9279   -5.5098   -0.8012 H   0  0  0  0  0  0  0  0  0  0  0  0
   -0.5499   -1.4267   -0.6490 H   0  0  0  0  0  0  0  0  0  0  0  0
    1.6078   -3.9767    0.6767 H   0  0  0  0  0  0  0  0  0  0  0  0
    2.1945   -3.6710   -0.9527 H   0  0  0  0  0  0  0  0  0  0  0  0
    2.7072   -1.5021   -0.3678 H   0  0  0  0  0  0  0  0  0  0  0  0
    0.8993    1.0131    1.3302 H   0  0  0  0  0  0  0  0  0  0  0  0
    2.0427    0.3000    2.5499 H   0  0  0  0  0  0  0  0  0  0  0  0
    2.8558    1.4247    0.0048 H   0  0  0  0  0  0  0  0  0  0  0  0
    5.7234   -0.5710   -0.3976 H   0  0  0  0  0  0  0  0  0  0  0  0
    6.8775    0.1150    1.5806 H   0  0  0  0  0  0  0  0  0  0  0  0
    7.2356    1.2421    0.2110 H   0  0  0  0  0  0  0  0  0  0  0  0
    5.2264    1.0298    3.4127 H   0  0  0  0  0  0  0  0  0  0  0  0
    4.4215    3.0748    4.4948 H   0  0  0  0  0  0  0  0  0  0  0  0
    5.7012    5.4469    1.2658 H   0  0  0  0  0  0  0  0  0  0  0  0
    6.5380    3.4035    0.1261 H   0  0  0  0  0  0  0  0  0  0  0  0
    5.0866    5.9186    4.3331 H   0  0  0  0  0  0  0  0  0  0  0  0
    4.6360    2.1844   -0.7260 H   0  0  0  0  0  0  0  0  0  0  0  0
    5.7742    1.3146   -1.7219 H   0  0  0  0  0  0  0  0  0  0  0  0
  1  2  1  0
  2  3  1  0
  3  4  1  0
  4  5  1  0
  5  6  1  0
  6  7  2  0
  6  8  1  0
  5  9  1  0
  9 10  1  0
 10 11  2  0
 10 12  1  0
 12 13  1  0
 13 14  1  0
 14 15  2  0
 15 16  1  0
 16 17  2  0
 17 18  1  0
 18 19  2  0
 12 20  1  0
 20 21  1  0
 21 22  2  0
 21 23  1  0
 23 24  1  0
 24 25  1  0
 25 26  2  0
 25 27  1  0
 27 28  1  0
 28 29  1  0
 29 30  2  0
 29 31  1  0
 31 32  1  0
 32 33  1  0
 33 34  2  0
 34 35  1  0
 35 36  2  0
 36 37  1  0
 37 38  2  0
 36 39  1  0
 31 40  1  0
 19 14  1  0
 38 33  1  0
  1 41  1  0
  1 42  1  0
  1 43  1  0
  3 44  1  0
  3 45  1  0
  4 46  1  0
  4 47  1  0
  5 48  1  6
  8 49  1  0
  9 50  1  0
 12 51  1  6
 13 52  1  0
 13 53  1  0
 15 54  1  0
 16 55  1  0
 17 56  1  0
 18 57  1  0
 19 58  1  0
 20 59  1  0
 23 60  1  0
 23 61  1  0
 24 62  1  0
 27 63  1  0
 27 64  1  0
 28 65  1  0
 31 66  1  6
 32 67  1  0
 32 68  1  0
 34 69  1  0
 35 70  1  0
 37 71  1  0
 38 72  1  0
 39 73  1  0
 40 74  1  0
 40 75  1  0
M  END
>  <Ligand ID>  (1) 
LIG0004970

>  <Ligand>  (1) 
[Met]enkephalin

>  <SMILES>  (1) 
CSCC[C@@H](C(=O)O)NC(=O)[C@H](Cc1ccccc1)NC(=O)CNC(=O)CNC(=O)[C@H](Cc1ccc(cc1)O)N

>  <CID>  (1) 
443363.0

>  <ChEMBL ID>  (1) 
nan

>  <InChiKey>  (1) 
YFGBQHOOROIVKG-FKBYEOEOSA-N

>  <InChi>  (1) 
InChI=1S/C27H35N5O7S/c1-40-12-11-21(27(38)39)32-26(37)22(14-17-5-3-2-4-6-17)31-24(35)16-29-23(34)15-30-25(36)20(28)13-18-7-9-19(33)10-8-18/h2-10,20-22,33H,11-16,28H2,1H3,(H,29,34)(H,30,36)(H,31,35)(H,32,37)(H,38,39)/t20-,21-,22-/m0/s1

>  <IUPAC Name>  (1) 
(2S)-2-[[(2S)-2-[[2-[[2-[[(2S)-2-amino-3-(4-hydroxyphenyl)propanoyl]amino]acetyl]amino]acetyl]amino]-3-phenylpropanoyl]amino]-4-methylsulfanylbutanoic acid

$$$$
