
     RDKit          3D

 61 66  0  0  0  0  0  0  0  0999 V2000
   -6.6266    2.8500   -0.4925 C   0  0  0  0  0  0  0  0  0  0  0  0
   -5.2478    2.6334   -0.5425 O   0  0  0  0  0  0  0  0  0  0  0  0
   -4.6110    1.4639   -0.2117 C   0  0  0  0  0  0  0  0  0  0  0  0
   -5.2968    0.3327    0.2231 C   0  0  0  0  0  0  0  0  0  0  0  0
   -4.6330   -0.8440    0.5547 C   0  0  0  0  0  0  0  0  0  0  0  0
   -3.2357   -0.8856    0.4450 C   0  0  0  0  0  0  0  0  0  0  0  0
   -2.6237    0.2370    0.0167 C   0  0  0  0  0  0  0  0  0  0  0  0
   -3.2390    1.4208   -0.3184 C   0  0  0  0  0  0  0  0  0  0  0  0
   -2.2190    2.2838   -0.6866 O   0  0  0  0  0  0  0  0  0  0  0  0
   -1.0422    1.8499    0.0553 C   0  0  2  0  0  0  0  0  0  0  0  0
   -1.1500    0.3720   -0.1940 C   0  0  2  0  0  0  0  0  0  0  0  0
   -0.8527    0.0072   -1.6136 C   0  0  0  0  0  0  0  0  0  0  0  0
   -1.3168   -1.4103   -1.8376 C   0  0  0  0  0  0  0  0  0  0  0  0
   -0.6901   -2.2808   -0.8666 N   0  0  0  0  0  0  0  0  0  0  0  0
   -1.0273   -1.9093    0.4859 C   0  0  0  0  0  0  0  0  0  0  0  0
   -2.4449   -2.0571    0.8176 C   0  0  0  0  0  0  0  0  0  0  0  0
   -0.3936   -0.5384    0.7109 C   0  0  2  0  0  0  0  0  0  0  0  0
   -0.5584   -0.1910    2.1665 C   0  0  0  0  0  0  0  0  0  0  0  0
   -1.3899    1.0013    2.4621 C   0  0  0  0  0  0  0  0  0  0  0  0
   -1.3228    2.0839    1.4679 C   0  0  0  0  0  0  0  0  0  0  0  0
   -1.5146    3.2413    1.8591 O   0  0  0  0  0  0  0  0  0  0  0  0
    0.9955   -0.7474    0.3272 N   0  0  0  0  0  0  0  0  0  0  0  0
    2.0108    0.2211    0.4657 C   0  0  0  0  0  0  0  0  0  0  0  0
    1.7669    1.3378    0.9473 O   0  0  0  0  0  0  0  0  0  0  0  0
    3.4057   -0.0337    0.0511 C   0  0  0  0  0  0  0  0  0  0  0  0
    4.3538    0.8485    0.1720 C   0  0  0  0  0  0  0  0  0  0  0  0
    5.7403    0.6503   -0.2190 C   0  0  0  0  0  0  0  0  0  0  0  0
    6.1873   -0.5308   -0.7714 C   0  0  0  0  0  0  0  0  0  0  0  0
    7.5232   -0.7128   -1.1448 C   0  0  0  0  0  0  0  0  0  0  0  0
    8.4423    0.3199   -0.9598 C   0  0  0  0  0  0  0  0  0  0  0  0
    8.0004    1.5047   -0.4072 C   0  0  0  0  0  0  0  0  0  0  0  0
    6.6750    1.6501   -0.0502 C   0  0  0  0  0  0  0  0  0  0  0  0
   10.1275    0.1489   -1.4085 Cl  0  0  0  0  0  0  0  0  0  0  0  0
   -0.9371   -3.6617   -1.1652 C   0  0  0  0  0  0  0  0  0  0  0  0
   -6.9530    3.5719   -1.2892 H   0  0  0  0  0  0  0  0  0  0  0  0
   -6.9729    3.2494    0.4892 H   0  0  0  0  0  0  0  0  0  0  0  0
   -7.1911    1.9174   -0.7009 H   0  0  0  0  0  0  0  0  0  0  0  0
   -6.3715    0.3473    0.3123 H   0  0  0  0  0  0  0  0  0  0  0  0
   -5.1691   -1.7264    0.8948 H   0  0  0  0  0  0  0  0  0  0  0  0
   -0.2400    2.3837   -0.4196 H   0  0  0  0  0  0  0  0  0  0  0  0
    0.2489   -0.0059   -1.7923 H   0  0  0  0  0  0  0  0  0  0  0  0
   -1.3188    0.6999   -2.3466 H   0  0  0  0  0  0  0  0  0  0  0  0
   -0.9156   -1.7132   -2.8311 H   0  0  0  0  0  0  0  0  0  0  0  0
   -2.4098   -1.5263   -1.8850 H   0  0  0  0  0  0  0  0  0  0  0  0
   -0.4350   -2.5974    1.1454 H   0  0  0  0  0  0  0  0  0  0  0  0
   -2.8473   -2.9137    0.2404 H   0  0  0  0  0  0  0  0  0  0  0  0
   -2.6014   -2.3298    1.8780 H   0  0  0  0  0  0  0  0  0  0  0  0
    0.4456   -0.0524    2.6202 H   0  0  0  0  0  0  0  0  0  0  0  0
   -0.9762   -1.0602    2.7554 H   0  0  0  0  0  0  0  0  0  0  0  0
   -2.4629    0.7398    2.7037 H   0  0  0  0  0  0  0  0  0  0  0  0
   -1.0298    1.4150    3.4541 H   0  0  0  0  0  0  0  0  0  0  0  0
    1.3259   -1.6761   -0.0938 H   0  0  0  0  0  0  0  0  0  0  0  0
    3.6207   -0.9856   -0.3610 H   0  0  0  0  0  0  0  0  0  0  0  0
    4.0752    1.8174    0.6052 H   0  0  0  0  0  0  0  0  0  0  0  0
    5.5275   -1.3633   -0.9390 H   0  0  0  0  0  0  0  0  0  0  0  0
    7.8777   -1.6382   -1.5786 H   0  0  0  0  0  0  0  0  0  0  0  0
    8.6438    2.3591   -0.2276 H   0  0  0  0  0  0  0  0  0  0  0  0
    6.3226    2.5924    0.3896 H   0  0  0  0  0  0  0  0  0  0  0  0
   -1.3895   -4.2508   -0.3495 H   0  0  0  0  0  0  0  0  0  0  0  0
   -1.6480   -3.7230   -2.0270 H   0  0  0  0  0  0  0  0  0  0  0  0
   -0.0115   -4.1869   -1.4567 H   0  0  0  0  0  0  0  0  0  0  0  0
  1  2  1  0
  2  3  1  0
  3  4  2  0
  4  5  1  0
  5  6  2  0
  6  7  1  0
  7  8  2  0
  8  9  1  0
  9 10  1  0
 10 11  1  0
 11 12  1  6
 12 13  1  0
 13 14  1  0
 14 15  1  0
 15 16  1  0
 15 17  1  0
 17 18  1  0
 18 19  1  0
 19 20  1  0
 20 21  2  0
 17 22  1  6
 22 23  1  0
 23 24  2  0
 23 25  1  0
 25 26  2  0
 26 27  1  0
 27 28  2  0
 28 29  1  0
 29 30  2  0
 30 31  1  0
 31 32  2  0
 30 33  1  0
 14 34  1  0
  8  3  1  0
 20 10  1  0
 32 27  1  0
 16  6  1  0
 11  7  1  0
 17 11  1  0
  1 35  1  0
  1 36  1  0
  1 37  1  0
  4 38  1  0
  5 39  1  0
 10 40  1  6
 12 41  1  0
 12 42  1  0
 13 43  1  0
 13 44  1  0
 15 45  1  0
 16 46  1  0
 16 47  1  0
 18 48  1  0
 18 49  1  0
 19 50  1  0
 19 51  1  0
 22 52  1  0
 25 53  1  0
 26 54  1  0
 28 55  1  0
 29 56  1  0
 31 57  1  0
 32 58  1  0
 34 59  1  0
 34 60  1  0
 34 61  1  0
M  END
>  <Ligand ID>  (1) 
LIG0004600

>  <Ligand>  (1) 
BDBM50193538

>  <SMILES>  (1) 
COc1ccc2c3c1O[C@@H]1[C@@]43CCN(C(C2)[C@@]4(CCC1=O)NC(=O)/C=C/c1ccc(cc1)Cl)C

>  <CID>  (1) 
24177557.0

>  <ChEMBL ID>  (1) 
nan

>  <InChiKey>  (1) 
LCRBGGVXFPUISF-AJOGVBQRSA-N

>  <InChi>  (1) 
InChI=1S/C27H27ClN2O4/c1-30-14-13-26-23-17-6-9-20(33-2)24(23)34-25(26)19(31)11-12-27(26,21(30)15-17)29-22(32)10-5-16-3-7-18(28)8-4-16/h3-10,21,25H,11-15H2,1-2H3,(H,29,32)/b10-5+/t21?,25-,26-,27+/m0/s1

>  <IUPAC Name>  (1) 
(E)-N-[(4aS,7aR,12bR)-9-methoxy-3-methyl-7-oxo-2,4,5,6,7a,13-hexahydro-1H-4,12-methanobenzofuro[3,2-e]isoquinolin-4a-yl]-3-(4-chlorophenyl)prop-2-enamide

$$$$
