
     RDKit          3D

186194  0  0  0  0  0  0  0  0999 V2000
  -10.5614    1.0929    3.0077 O   0  0  0  0  0  0  0  0  0  0  0  0
   -9.2240    1.2932    2.6661 C   0  0  0  0  0  0  0  0  0  0  0  0
   -8.6115    2.5097    2.9119 C   0  0  0  0  0  0  0  0  0  0  0  0
   -7.2796    2.6324    2.5415 C   0  0  0  0  0  0  0  0  0  0  0  0
   -6.5729    1.6002    1.9508 C   0  0  0  0  0  0  0  0  0  0  0  0
   -7.2632    0.4041    1.7372 C   0  0  0  0  0  0  0  0  0  0  0  0
   -8.5718    0.2292    2.0819 C   0  0  0  0  0  0  0  0  0  0  0  0
   -5.2020    1.8483    1.5364 C   0  0  0  0  0  0  0  0  0  0  0  0
   -4.1014    1.7553    2.5478 C   0  0  2  0  0  0  0  0  0  0  0  0
   -2.8280    2.0029    1.9859 N   0  0  0  0  0  0  0  0  0  0  0  0
   -2.3164    0.9728    1.1278 C   0  0  0  0  0  0  0  0  0  0  0  0
   -1.3314    1.3729    0.4915 O   0  0  0  0  0  0  0  0  0  0  0  0
   -2.7876   -0.3751    0.9200 C   0  0  0  0  0  0  0  0  0  0  0  0
   -2.8509   -0.8921   -0.4679 C   0  0  2  0  0  0  0  0  0  0  0  0
   -4.0889   -0.6448   -1.1719 N   0  0  0  0  0  0  0  0  0  0  0  0
   -5.1708   -1.5203   -0.9292 C   0  0  0  0  0  0  0  0  0  0  0  0
   -5.0923   -2.4975   -0.1001 O   0  0  0  0  0  0  0  0  0  0  0  0
   -6.5051   -1.4100   -1.6018 C   0  0  2  0  0  0  0  0  0  0  0  0
   -6.6939   -2.7091   -2.3642 C   0  0  0  0  0  0  0  0  0  0  0  0
   -7.9719   -2.8110   -3.0871 C   0  0  0  0  0  0  0  0  0  0  0  0
   -9.0313   -3.4024   -2.3996 C   0  0  0  0  0  0  0  0  0  0  0  0
  -10.2821   -3.5636   -2.9518 C   0  0  0  0  0  0  0  0  0  0  0  0
  -10.4531   -3.1058   -4.2445 C   0  0  0  0  0  0  0  0  0  0  0  0
   -9.4223   -2.5119   -4.9608 C   0  0  0  0  0  0  0  0  0  0  0  0
   -8.1867   -2.3700   -4.3717 C   0  0  0  0  0  0  0  0  0  0  0  0
  -11.7302   -3.2765   -4.7899 O   0  0  0  0  0  0  0  0  0  0  0  0
   -6.5938   -0.2679   -2.4790 N   0  0  0  0  0  0  0  0  0  0  0  0
   -2.3607   -2.2525   -0.6778 C   0  0  0  0  0  0  0  0  0  0  0  0
   -2.9561   -3.2049   -1.2044 O   0  0  0  0  0  0  0  0  0  0  0  0
   -1.0233   -2.5869   -0.2522 N   0  0  0  0  0  0  0  0  0  0  0  0
   -0.4711   -3.9616   -0.4686 C   0  0  1  0  0  0  0  0  0  0  0  0
    0.0617   -3.9656   -1.9086 C   0  0  0  0  0  0  0  0  0  0  0  0
    0.6288   -5.2474   -2.3204 C   0  0  0  0  0  0  0  0  0  0  0  0
   -0.1338   -6.2331   -2.8789 N   0  0  0  0  0  0  0  0  0  0  0  0
    0.6544   -7.2705   -3.1981 C   0  0  0  0  0  0  0  0  0  0  0  0
    1.9111   -6.9393   -2.8412 N   0  0  0  0  0  0  0  0  0  0  0  0
    1.9221   -5.7262   -2.3101 C   0  0  0  0  0  0  0  0  0  0  0  0
    0.6591   -4.0268    0.4523 C   0  0  0  0  0  0  0  0  0  0  0  0
    0.8925   -2.9534    1.1098 O   0  0  0  0  0  0  0  0  0  0  0  0
    1.5430   -5.0846    0.7549 N   0  0  0  0  0  0  0  0  0  0  0  0
    2.7240   -4.7879    1.6366 C   0  0  2  0  0  0  0  0  0  0  0  0
    2.3427   -5.0549    3.0118 C   0  0  0  0  0  0  0  0  0  0  0  0
    1.9379   -6.5329    3.0566 C   0  0  0  0  0  0  0  0  0  0  0  0
    0.6266   -6.8709    2.8151 C   0  0  0  0  0  0  0  0  0  0  0  0
    0.2415   -8.1983    2.8570 C   0  0  0  0  0  0  0  0  0  0  0  0
    1.1789   -9.1958    3.1423 C   0  0  0  0  0  0  0  0  0  0  0  0
    2.4808   -8.8106    3.3774 C   0  0  0  0  0  0  0  0  0  0  0  0
    2.8879   -7.4780    3.3398 C   0  0  0  0  0  0  0  0  0  0  0  0
    3.1754   -3.4920    1.1677 C   0  0  0  0  0  0  0  0  0  0  0  0
    2.9714   -3.2500   -0.0815 O   0  0  0  0  0  0  0  0  0  0  0  0
    3.7948   -2.4161    1.8171 N   0  0  0  0  0  0  0  0  0  0  0  0
    4.1363   -2.1511    3.1565 C   0  0  0  0  0  0  0  0  0  0  0  0
    3.8083   -0.6459    3.2666 C   0  0  0  0  0  0  0  0  0  0  0  0
    3.3076   -0.2256    1.8904 C   0  0  0  0  0  0  0  0  0  0  0  0
    4.1172   -1.2466    1.0398 C   0  0  1  0  0  0  0  0  0  0  0  0
    5.4882   -0.7652    1.1469 C   0  0  0  0  0  0  0  0  0  0  0  0
    6.2491   -0.7921    2.1126 O   0  0  0  0  0  0  0  0  0  0  0  0
    6.1031   -0.1511   -0.0362 N   0  0  0  0  0  0  0  0  0  0  0  0
    7.3910    0.5529    0.1535 C   0  0  2  0  0  0  0  0  0  0  0  0
    6.9014    2.0179    0.1809 C   0  0  0  0  0  0  0  0  0  0  0  0
    7.4766    2.8994    0.8037 O   0  0  0  0  0  0  0  0  0  0  0  0
    5.7483    2.3917   -0.5516 N   0  0  0  0  0  0  0  0  0  0  0  0
    5.0089    3.6229   -0.4736 C   0  0  2  0  0  0  0  0  0  0  0  0
    4.0322    3.7530   -1.5575 C   0  0  0  0  0  0  0  0  0  0  0  0
    4.2120    3.1411   -2.6188 O   0  0  0  0  0  0  0  0  0  0  0  0
    2.8417    4.5290   -1.5068 N   0  0  0  0  0  0  0  0  0  0  0  0
    2.0231    4.7875   -2.6909 C   0  0  2  0  0  0  0  0  0  0  0  0
    0.6861    5.2630   -2.4403 C   0  0  0  0  0  0  0  0  0  0  0  0
    0.0948    6.1192   -3.1009 O   0  0  0  0  0  0  0  0  0  0  0  0
   -0.0857    4.7111   -1.3414 N   0  0  0  0  0  0  0  0  0  0  0  0
   -1.4316    5.1859   -1.0423 C   0  0  2  0  0  0  0  0  0  0  0  0
   -2.0130    4.6609    0.1510 C   0  0  0  0  0  0  0  0  0  0  0  0
   -3.1601    4.9635    0.5357 O   0  0  0  0  0  0  0  0  0  0  0  0
   -1.3763    3.7222    1.0633 N   0  0  0  0  0  0  0  0  0  0  0  0
   -2.0168    3.1990    2.2350 C   0  0  1  0  0  0  0  0  0  0  0  0
   -2.5695    4.1757    3.1848 C   0  0  0  0  0  0  0  0  0  0  0  0
   -0.8542    2.5815    3.0116 C   0  0  0  0  0  0  0  0  0  0  0  0
   -1.0286    2.0647    4.1372 O   0  0  0  0  0  0  0  0  0  0  0  0
    0.4304    2.5691    2.4998 O   0  0  0  0  0  0  0  0  0  0  0  0
   -2.3712    4.7759   -2.2063 C   0  0  0  0  0  0  0  0  0  0  0  0
   -3.7524    5.2224   -2.0100 C   0  0  0  0  0  0  0  0  0  0  0  0
   -4.7800    4.4643   -1.5059 C   0  0  0  0  0  0  0  0  0  0  0  0
   -6.0685    4.9700   -1.3353 C   0  0  0  0  0  0  0  0  0  0  0  0
   -6.3089    6.2935   -1.6943 C   0  0  0  0  0  0  0  0  0  0  0  0
   -5.3054    7.0796   -2.2024 C   0  0  0  0  0  0  0  0  0  0  0  0
   -4.0164    6.5591   -2.3678 C   0  0  0  0  0  0  0  0  0  0  0  0
    1.7744    3.3737   -3.3550 C   0  0  0  0  0  0  0  0  0  0  0  0
    5.9905    4.8164   -0.6718 C   0  0  0  0  0  0  0  0  0  0  0  0
    6.6972    4.8056   -1.9327 C   0  0  0  0  0  0  0  0  0  0  0  0
    7.3837    5.8549   -2.2301 O   0  0  0  0  0  0  0  0  0  0  0  0
    6.7362    3.7776   -2.9014 N   0  0  0  0  0  0  0  0  0  0  0  0
    8.3413    0.3547   -0.9591 C   0  0  0  0  0  0  0  0  0  0  0  0
    9.6514    1.0119   -0.8086 C   0  0  0  0  0  0  0  0  0  0  0  0
   10.1884    2.1452   -1.3259 C   0  0  0  0  0  0  0  0  0  0  0  0
   11.4522    2.3035   -0.8577 N   0  0  0  0  0  0  0  0  0  0  0  0
   11.7583    1.2732   -0.0268 C   0  0  0  0  0  0  0  0  0  0  0  0
   10.6527    0.4778    0.0053 C   0  0  0  0  0  0  0  0  0  0  0  0
   10.6973   -0.6572    0.7865 C   0  0  0  0  0  0  0  0  0  0  0  0
   11.8231   -0.9997    1.5266 C   0  0  0  0  0  0  0  0  0  0  0  0
   12.9411   -0.1669    1.4744 C   0  0  0  0  0  0  0  0  0  0  0  0
   12.8913    0.9653    0.6930 C   0  0  0  0  0  0  0  0  0  0  0  0
   -4.2797    0.6514    3.4669 C   0  0  0  0  0  0  0  0  0  0  0  0
   -5.4543    0.2752    3.7381 O   0  0  0  0  0  0  0  0  0  0  0  0
   -3.2466   -0.0816    4.1232 N   0  0  0  0  0  0  0  0  0  0  0  0
  -11.2716    1.8047    2.7532 H   0  0  0  0  0  0  0  0  0  0  0  0
   -9.1580    3.3402    3.3786 H   0  0  0  0  0  0  0  0  0  0  0  0
   -6.8032    3.5734    2.7338 H   0  0  0  0  0  0  0  0  0  0  0  0
   -6.6956   -0.3892    1.2778 H   0  0  0  0  0  0  0  0  0  0  0  0
   -9.0821   -0.7237    1.8987 H   0  0  0  0  0  0  0  0  0  0  0  0
   -4.9743    1.1656    0.6948 H   0  0  0  0  0  0  0  0  0  0  0  0
   -5.2204    2.8595    1.0411 H   0  0  0  0  0  0  0  0  0  0  0  0
   -4.2766    2.6898    3.2202 H   0  0  0  0  0  0  0  0  0  0  0  0
   -2.0239   -1.0467    1.4514 H   0  0  0  0  0  0  0  0  0  0  0  0
   -3.7260   -0.6475    1.4581 H   0  0  0  0  0  0  0  0  0  0  0  0
   -2.0503   -0.2437   -1.0360 H   0  0  0  0  0  0  0  0  0  0  0  0
   -4.2236    0.1429   -1.8452 H   0  0  0  0  0  0  0  0  0  0  0  0
   -7.2959   -1.3296   -0.8404 H   0  0  0  0  0  0  0  0  0  0  0  0
   -6.5899   -3.5459   -1.6398 H   0  0  0  0  0  0  0  0  0  0  0  0
   -5.8130   -2.7756   -3.0430 H   0  0  0  0  0  0  0  0  0  0  0  0
   -8.9040   -3.7680   -1.3838 H   0  0  0  0  0  0  0  0  0  0  0  0
  -11.0909   -4.0347   -2.3847 H   0  0  0  0  0  0  0  0  0  0  0  0
   -9.6096   -2.1669   -5.9866 H   0  0  0  0  0  0  0  0  0  0  0  0
   -7.3496   -1.9093   -4.9056 H   0  0  0  0  0  0  0  0  0  0  0  0
  -12.0476   -4.2294   -4.9449 H   0  0  0  0  0  0  0  0  0  0  0  0
   -5.8901   -0.2766   -3.2386 H   0  0  0  0  0  0  0  0  0  0  0  0
   -7.5802   -0.2204   -2.7953 H   0  0  0  0  0  0  0  0  0  0  0  0
   -0.5021   -1.8451    0.1890 H   0  0  0  0  0  0  0  0  0  0  0  0
   -1.2374   -4.7269   -0.4352 H   0  0  0  0  0  0  0  0  0  0  0  0
    0.9156   -3.2202   -1.9699 H   0  0  0  0  0  0  0  0  0  0  0  0
   -0.6858   -3.5514   -2.6147 H   0  0  0  0  0  0  0  0  0  0  0  0
    0.2963   -8.1753   -3.6551 H   0  0  0  0  0  0  0  0  0  0  0  0
    2.7465   -7.5589   -2.9734 H   0  0  0  0  0  0  0  0  0  0  0  0
    2.7853   -5.2139   -1.9420 H   0  0  0  0  0  0  0  0  0  0  0  0
    1.3362   -6.0000    0.3975 H   0  0  0  0  0  0  0  0  0  0  0  0
    3.4707   -5.5617    1.2119 H   0  0  0  0  0  0  0  0  0  0  0  0
    3.1478   -4.9339    3.7741 H   0  0  0  0  0  0  0  0  0  0  0  0
    1.4536   -4.5334    3.4064 H   0  0  0  0  0  0  0  0  0  0  0  0
   -0.0546   -6.0598    2.6011 H   0  0  0  0  0  0  0  0  0  0  0  0
   -0.8066   -8.4652    2.6638 H   0  0  0  0  0  0  0  0  0  0  0  0
    0.8517  -10.2354    3.1702 H   0  0  0  0  0  0  0  0  0  0  0  0
    3.1912   -9.5917    3.6009 H   0  0  0  0  0  0  0  0  0  0  0  0
    3.9375   -7.2182    3.5290 H   0  0  0  0  0  0  0  0  0  0  0  0
    3.5048   -2.6916    3.9099 H   0  0  0  0  0  0  0  0  0  0  0  0
    5.1912   -2.2646    3.4094 H   0  0  0  0  0  0  0  0  0  0  0  0
    4.6703   -0.0575    3.6193 H   0  0  0  0  0  0  0  0  0  0  0  0
    2.9169   -0.5298    3.9376 H   0  0  0  0  0  0  0  0  0  0  0  0
    2.2472   -0.3490    1.7329 H   0  0  0  0  0  0  0  0  0  0  0  0
    3.6575    0.7846    1.6027 H   0  0  0  0  0  0  0  0  0  0  0  0
    3.7269   -1.2405    0.0050 H   0  0  0  0  0  0  0  0  0  0  0  0
    5.6026   -0.2690   -0.8882 H   0  0  0  0  0  0  0  0  0  0  0  0
    7.8223    0.4097    1.1380 H   0  0  0  0  0  0  0  0  0  0  0  0
    5.4176    1.6849   -1.2282 H   0  0  0  0  0  0  0  0  0  0  0  0
    4.6443    3.8328    0.5388 H   0  0  0  0  0  0  0  0  0  0  0  0
    2.6018    4.8839   -0.5747 H   0  0  0  0  0  0  0  0  0  0  0  0
    2.6415    5.2605   -3.4428 H   0  0  0  0  0  0  0  0  0  0  0  0
    0.4107    3.9818   -0.8350 H   0  0  0  0  0  0  0  0  0  0  0  0
   -1.4201    6.2838   -1.1484 H   0  0  0  0  0  0  0  0  0  0  0  0
   -0.4306    3.4735    0.7883 H   0  0  0  0  0  0  0  0  0  0  0  0
   -3.5082    4.6725    2.9214 H   0  0  0  0  0  0  0  0  0  0  0  0
   -1.8079    4.9812    3.3103 H   0  0  0  0  0  0  0  0  0  0  0  0
   -2.6125    3.6989    4.2018 H   0  0  0  0  0  0  0  0  0  0  0  0
    1.2590    2.4162    3.0813 H   0  0  0  0  0  0  0  0  0  0  0  0
   -1.9482    5.1670   -3.1422 H   0  0  0  0  0  0  0  0  0  0  0  0
   -2.3026    3.6539   -2.2517 H   0  0  0  0  0  0  0  0  0  0  0  0
   -4.5636    3.4253   -1.2335 H   0  0  0  0  0  0  0  0  0  0  0  0
   -6.8706    4.3555   -0.9317 H   0  0  0  0  0  0  0  0  0  0  0  0
   -7.2804    6.7534   -1.5924 H   0  0  0  0  0  0  0  0  0  0  0  0
   -5.4966    8.1230   -2.4842 H   0  0  0  0  0  0  0  0  0  0  0  0
   -3.2262    7.1876   -2.7664 H   0  0  0  0  0  0  0  0  0  0  0  0
    0.7947    3.4690   -3.8539 H   0  0  0  0  0  0  0  0  0  0  0  0
    1.6927    2.6103   -2.5715 H   0  0  0  0  0  0  0  0  0  0  0  0
    2.5090    3.1975   -4.1401 H   0  0  0  0  0  0  0  0  0  0  0  0
    5.2811    5.6875   -0.6995 H   0  0  0  0  0  0  0  0  0  0  0  0
    6.5859    4.9449    0.2422 H   0  0  0  0  0  0  0  0  0  0  0  0
    6.4978    3.9328   -3.9218 H   0  0  0  0  0  0  0  0  0  0  0  0
    7.0102    2.8180   -2.6001 H   0  0  0  0  0  0  0  0  0  0  0  0
    8.4998   -0.7499   -1.1562 H   0  0  0  0  0  0  0  0  0  0  0  0
    7.9150    0.7260   -1.9216 H   0  0  0  0  0  0  0  0  0  0  0  0
    9.6755    2.8207   -2.0082 H   0  0  0  0  0  0  0  0  0  0  0  0
   12.1388    3.0636   -1.0544 H   0  0  0  0  0  0  0  0  0  0  0  0
    9.8416   -1.3457    0.8594 H   0  0  0  0  0  0  0  0  0  0  0  0
   11.7882   -1.8977    2.1170 H   0  0  0  0  0  0  0  0  0  0  0  0
   13.8296   -0.4365    2.0637 H   0  0  0  0  0  0  0  0  0  0  0  0
   13.7904    1.5894    0.6862 H   0  0  0  0  0  0  0  0  0  0  0  0
   -3.4044   -0.3817    5.1278 H   0  0  0  0  0  0  0  0  0  0  0  0
   -2.3437   -0.3492    3.7208 H   0  0  0  0  0  0  0  0  0  0  0  0
  1  2  1  0
  2  3  2  0
  3  4  1  0
  4  5  2  0
  5  6  1  0
  6  7  2  0
  5  8  1  0
  8  9  1  0
  9 10  1  0
 10 11  1  0
 11 12  2  0
 11 13  1  0
 13 14  1  0
 14 15  1  0
 15 16  1  0
 16 17  2  0
 16 18  1  0
 18 19  1  0
 19 20  1  0
 20 21  2  0
 21 22  1  0
 22 23  2  0
 23 24  1  0
 24 25  2  0
 23 26  1  0
 18 27  1  0
 14 28  1  0
 28 29  2  0
 28 30  1  0
 30 31  1  0
 31 32  1  0
 32 33  1  0
 33 34  1  0
 34 35  2  0
 35 36  1  0
 36 37  1  0
 31 38  1  0
 38 39  2  0
 38 40  1  0
 40 41  1  0
 41 42  1  0
 42 43  1  0
 43 44  2  0
 44 45  1  0
 45 46  2  0
 46 47  1  0
 47 48  2  0
 41 49  1  0
 49 50  2  0
 49 51  1  0
 51 52  1  0
 52 53  1  0
 53 54  1  0
 54 55  1  0
 55 56  1  0
 56 57  2  0
 56 58  1  0
 58 59  1  0
 59 60  1  0
 60 61  2  0
 60 62  1  0
 62 63  1  0
 63 64  1  0
 64 65  2  0
 64 66  1  0
 66 67  1  0
 67 68  1  0
 68 69  2  0
 68 70  1  0
 70 71  1  0
 71 72  1  0
 72 73  2  0
 72 74  1  0
 74 75  1  0
 75 76  1  1
 75 77  1  0
 77 78  2  0
 77 79  1  0
 71 80  1  0
 80 81  1  0
 81 82  2  0
 82 83  1  0
 83 84  2  0
 84 85  1  0
 85 86  2  0
 67 87  1  0
 63 88  1  0
 88 89  1  0
 89 90  2  0
 89 91  1  0
 59 92  1  0
 92 93  1  0
 93 94  2  0
 94 95  1  0
 95 96  1  0
 96 97  2  0
 97 98  1  0
 98 99  2  0
 99100  1  0
100101  2  0
  9102  1  0
102103  2  0
102104  1  0
  7  2  1  0
 75 10  1  0
 86 81  1  0
 97 93  1  0
 25 20  1  0
 37 33  2  0
 48 43  1  0
 55 51  1  0
101 96  1  0
  1105  1  0
  3106  1  0
  4107  1  0
  6108  1  0
  7109  1  0
  8110  1  0
  8111  1  0
  9112  1  1
 13113  1  0
 13114  1  0
 14115  1  6
 15116  1  0
 18117  1  1
 19118  1  0
 19119  1  0
 21120  1  0
 22121  1  0
 24122  1  0
 25123  1  0
 26124  1  0
 27125  1  0
 27126  1  0
 30127  1  0
 31128  1  6
 32129  1  0
 32130  1  0
 35131  1  0
 36132  1  0
 37133  1  0
 40134  1  0
 41135  1  6
 42136  1  0
 42137  1  0
 44138  1  0
 45139  1  0
 46140  1  0
 47141  1  0
 48142  1  0
 52143  1  0
 52144  1  0
 53145  1  0
 53146  1  0
 54147  1  0
 54148  1  0
 55149  1  6
 58150  1  0
 59151  1  1
 62152  1  0
 63153  1  1
 66154  1  0
 67155  1  6
 70156  1  0
 71157  1  1
 74158  1  0
 76159  1  0
 76160  1  0
 76161  1  0
 79162  1  0
 80163  1  0
 80164  1  0
 82165  1  0
 83166  1  0
 84167  1  0
 85168  1  0
 86169  1  0
 87170  1  0
 87171  1  0
 87172  1  0
 88173  1  0
 88174  1  0
 91175  1  0
 91176  1  0
 92177  1  0
 92178  1  0
 94179  1  0
 95180  1  0
 98181  1  0
 99182  1  0
100183  1  0
101184  1  0
104185  1  0
104186  1  0
M  END
>  <Ligand ID>  (1) 
LIG0001133

>  <Ligand>  (1) 
CHEMBL2369976

>  <SMILES>  (1) 
Oc1ccc(cc1)C[C@H](N1C(=O)C[C@H](NC(=O)[C@H](Cc2ccc(cc2)O)N)C(=O)N[C@@H](Cc2nc[nH]c2)C(=O)N[C@H](Cc2ccccc2)C(=O)N2CCC[C@H]2C(=O)N[C@H](C(=O)N[C@H](C(=O)N[C@H](C(=O)N[C@H](C(=O)N[C@]1(C)C(=O)O)Cc1ccccc1)C)CC(=O)N)Cc1c[nH]c2c1cccc2)C(=O)N

>  <CID>  (1) 
73352994.0

>  <ChEMBL ID>  (1) 
nan

>  <InChiKey>  (1) 
YNOJBDMJAJBSSK-PPHIFDDASA-N

>  <InChi>  (1) 
InChI=1S/C72H82N16O16/c1-39-62(94)80-51(29-40-12-5-3-6-13-40)68(100)86-72(2,71(103)104)88(58(61(75)93)31-43-21-25-47(90)26-22-43)60(92)35-55(81-63(95)49(73)28-42-19-23-46(89)24-20-42)67(99)82-53(33-45-37-76-38-78-45)66(98)85-56(30-41-14-7-4-8-15-41)70(102)87-27-11-18-57(87)69(101)84-52(32-44-36-77-50-17-10-9-16-48(44)50)65(97)83-54(34-59(74)91)64(96)79-39/h3-10,12-17,19-26,36-39,49,51-58,77,89-90H,11,18,27-35,73H2,1-2H3,(H2,74,91)(H2,75,93)(H,76,78)(H,79,96)(H,80,94)(H,81,95)(H,82,99)(H,83,97)(H,84,101)(H,85,98)(H,86,100)(H,103,104)/t39-,49-,51-,52-,53-,54-,55-,56+,57-,58-,72-/m0/s1

>  <IUPAC Name>  (1) 
(3R,6S,9S,13S,16S,19S,22S,25S,28S)-12-[(2S)-1-amino-3-(4-hydroxyphenyl)-1-oxopropan-2-yl]-9-[[(2S)-2-amino-3-(4-hydroxyphenyl)propanoyl]amino]-22-(2-amino-2-oxoethyl)-3,16-dibenzyl-6-(1H-imidazol-4-ylmethyl)-25-(1H-indol-3-ylmethyl)-13,19-dimethyl-2,5,8,11,15,18,21,24,27-nonaoxo-1,4,7,12,14,17,20,23,26-nonazabicyclo[26.3.0]hentriacontane-13-carboxylic acid

$$$$
