
     RDKit          3D

 35 37  0  0  0  0  0  0  0  0999 V2000
    0.7785    0.5177    2.5722 C   0  0  0  0  0  0  0  0  0  0  0  0
    1.0443    0.7472    1.0892 C   0  0  1  0  0  0  0  0  0  0  0  0
    2.3687    0.1824    0.7165 C   0  0  0  0  0  0  0  0  0  0  0  0
    3.3483    0.8310    0.2338 N   0  0  0  0  0  0  0  0  0  0  0  0
    4.4912   -0.0400   -0.0132 C   0  0  0  0  0  0  0  0  0  0  0  0
    4.1594   -1.2453    0.8075 C   0  0  0  0  0  0  0  0  0  0  0  0
    2.6976   -1.1934    0.8640 N   0  0  0  0  0  0  0  0  0  0  0  0
   -0.0093    0.1555    0.4001 O   0  0  0  0  0  0  0  0  0  0  0  0
   -0.9341    0.8506   -0.3187 C   0  0  0  0  0  0  0  0  0  0  0  0
   -1.0079    2.2008   -0.4976 C   0  0  0  0  0  0  0  0  0  0  0  0
   -2.0120    2.8013   -1.2637 C   0  0  0  0  0  0  0  0  0  0  0  0
   -2.9779    2.0465   -1.8754 C   0  0  0  0  0  0  0  0  0  0  0  0
   -2.9211    0.6818   -1.7072 C   0  0  0  0  0  0  0  0  0  0  0  0
   -1.9326    0.0931   -0.9533 C   0  0  0  0  0  0  0  0  0  0  0  0
   -1.9372   -1.3912   -0.8174 C   0  0  0  0  0  0  0  0  0  0  0  0
   -2.7118   -1.9085    0.3378 C   0  0  0  0  0  0  0  0  0  0  0  0
   -3.1419   -2.1722   -1.0951 C   0  0  0  0  0  0  0  0  0  0  0  0
   -0.2287    0.9477    2.7761 H   0  0  0  0  0  0  0  0  0  0  0  0
    1.5260    1.0818    3.1519 H   0  0  0  0  0  0  0  0  0  0  0  0
    0.7371   -0.5577    2.7749 H   0  0  0  0  0  0  0  0  0  0  0  0
    1.0073    1.8408    0.9603 H   0  0  0  0  0  0  0  0  0  0  0  0
    4.6213   -0.2599   -1.0912 H   0  0  0  0  0  0  0  0  0  0  0  0
    5.3665    0.4833    0.4204 H   0  0  0  0  0  0  0  0  0  0  0  0
    4.5326   -2.1321    0.2681 H   0  0  0  0  0  0  0  0  0  0  0  0
    4.6078   -1.1240    1.8087 H   0  0  0  0  0  0  0  0  0  0  0  0
    2.0223   -1.9820    0.9854 H   0  0  0  0  0  0  0  0  0  0  0  0
   -0.2990    2.8742   -0.0598 H   0  0  0  0  0  0  0  0  0  0  0  0
   -2.0356    3.8894   -1.3825 H   0  0  0  0  0  0  0  0  0  0  0  0
   -3.7343    2.5472   -2.4570 H   0  0  0  0  0  0  0  0  0  0  0  0
   -3.7005    0.1066   -2.2042 H   0  0  0  0  0  0  0  0  0  0  0  0
   -0.9460   -1.8662   -1.0000 H   0  0  0  0  0  0  0  0  0  0  0  0
   -3.4245   -1.2806    0.9116 H   0  0  0  0  0  0  0  0  0  0  0  0
   -2.2773   -2.7305    0.9405 H   0  0  0  0  0  0  0  0  0  0  0  0
   -2.9843   -3.2488   -1.3923 H   0  0  0  0  0  0  0  0  0  0  0  0
   -4.0928   -1.7464   -1.4486 H   0  0  0  0  0  0  0  0  0  0  0  0
  1  2  1  0
  2  3  1  0
  3  4  2  0
  4  5  1  0
  5  6  1  0
  6  7  1  0
  2  8  1  0
  8  9  1  0
  9 10  2  0
 10 11  1  0
 11 12  2  0
 12 13  1  0
 13 14  2  0
 14 15  1  0
 15 16  1  0
 16 17  1  0
  7  3  1  0
 14  9  1  0
 17 15  1  0
  1 18  1  0
  1 19  1  0
  1 20  1  0
  2 21  1  1
  5 22  1  0
  5 23  1  0
  6 24  1  0
  6 25  1  0
  7 26  1  0
 10 27  1  0
 11 28  1  0
 12 29  1  0
 13 30  1  0
 15 31  1  0
 16 32  1  0
 16 33  1  0
 17 34  1  0
 17 35  1  0
M  END
>  <Ligand ID>  (1) 
LIG0005201

>  <Ligand>  (1) 
CHEMBL1276220

>  <SMILES>  (1) 
C[C@@H](C1=NCCN1)Oc1ccccc1C1CC1

>  <CID>  (1) 
49836303.0

>  <ChEMBL ID>  (1) 
nan

>  <InChiKey>  (1) 
QYCJTZDZQXSXSC-JTQLQIEISA-N

>  <InChi>  (1) 
InChI=1S/C14H18N2O/c1-10(14-15-8-9-16-14)17-13-5-3-2-4-12(13)11-6-7-11/h2-5,10-11H,6-9H2,1H3,(H,15,16)/t10-/m0/s1

>  <IUPAC Name>  (1) 
2-[(1S)-1-(2-cyclopropylphenoxy)ethyl]-4,5-dihydro-1H-imidazole

$$$$
