
     RDKit          3D

 60 62  0  0  0  0  0  0  0  0999 V2000
   -0.4257    0.0172    1.5542 O   0  0  0  0  0  0  0  0  0  0  0  0
    0.2514    1.2050    1.2560 C   0  0  0  0  0  0  0  0  0  0  0  0
   -0.2822    1.9106    0.0741 C   0  0  0  0  0  0  0  0  0  0  0  0
   -1.6108    2.1903    0.0980 O   0  0  0  0  0  0  0  0  0  0  0  0
   -2.8013    1.5695    0.0779 C   0  0  0  0  0  0  0  0  0  0  0  0
   -3.0721    0.2371   -0.0185 C   0  0  0  0  0  0  0  0  0  0  0  0
   -4.3649   -0.2883   -0.0240 C   0  0  0  0  0  0  0  0  0  0  0  0
   -5.4330    0.5528    0.0694 C   0  0  0  0  0  0  0  0  0  0  0  0
   -5.2102    1.9016    0.1671 C   0  0  0  0  0  0  0  0  0  0  0  0
   -3.9335    2.4052    0.1722 C   0  0  0  0  0  0  0  0  0  0  0  0
   -6.7661   -0.0444    0.0542 C   0  0  0  0  0  0  0  0  0  0  0  0
   -7.8233    0.2140   -0.7248 N   0  0  0  0  0  0  0  0  0  0  0  0
   -8.8297   -0.6117   -0.3535 C   0  0  0  0  0  0  0  0  0  0  0  0
   -8.3869   -1.4012    0.6806 C   0  0  0  0  0  0  0  0  0  0  0  0
   -7.1107   -1.0328    0.9146 N   0  0  0  0  0  0  0  0  0  0  0  0
   -6.2963   -1.6456    1.9443 C   0  0  0  0  0  0  0  0  0  0  0  0
  -10.1568   -0.5806   -1.0297 C   0  0  0  0  0  0  0  0  0  0  0  0
   -9.9388   -0.4914   -2.3861 F   0  0  0  0  0  0  0  0  0  0  0  0
  -10.8001   -1.7655   -0.7750 F   0  0  0  0  0  0  0  0  0  0  0  0
  -10.8434    0.5131   -0.5516 F   0  0  0  0  0  0  0  0  0  0  0  0
    1.6997    0.8406    1.2687 C   0  0  0  0  0  0  0  0  0  0  0  0
    2.6943    1.7459    0.9507 N   0  0  0  0  0  0  0  0  0  0  0  0
    2.9989    2.1666   -0.3425 C   0  0  0  0  0  0  0  0  0  0  0  0
    3.6337    1.0736   -1.2052 C   0  0  0  0  0  0  0  0  0  0  0  0
    4.8264    0.6761   -0.5748 O   0  0  0  0  0  0  0  0  0  0  0  0
    5.7151   -0.2736   -0.9639 C   0  0  0  0  0  0  0  0  0  0  0  0
    5.6380   -1.0679   -2.0733 C   0  0  0  0  0  0  0  0  0  0  0  0
    6.6112   -2.0039   -2.3647 C   0  0  0  0  0  0  0  0  0  0  0  0
    7.7143   -2.1844   -1.5471 C   0  0  0  0  0  0  0  0  0  0  0  0
    7.8106   -1.3838   -0.4115 C   0  0  0  0  0  0  0  0  0  0  0  0
    6.8331   -0.4623   -0.1433 C   0  0  0  0  0  0  0  0  0  0  0  0
    8.9538   -1.5177    0.5038 C   0  0  0  0  0  0  0  0  0  0  0  0
    9.8671   -2.3496    0.2734 O   0  0  0  0  0  0  0  0  0  0  0  0
    9.0178   -0.6921    1.6603 N   0  0  0  0  0  0  0  0  0  0  0  0
    8.7055   -3.1181   -1.8188 O   0  0  0  0  0  0  0  0  0  0  0  0
    0.0766   -0.7434    1.2188 H   0  0  0  0  0  0  0  0  0  0  0  0
    0.0323    1.8417    2.1984 H   0  0  0  0  0  0  0  0  0  0  0  0
   -0.0219    1.3669   -0.8565 H   0  0  0  0  0  0  0  0  0  0  0  0
    0.2278    2.9370    0.0263 H   0  0  0  0  0  0  0  0  0  0  0  0
   -2.2884   -0.4899   -0.1226 H   0  0  0  0  0  0  0  0  0  0  0  0
   -4.5212   -1.3505   -0.1009 H   0  0  0  0  0  0  0  0  0  0  0  0
   -6.0855    2.5382    0.2389 H   0  0  0  0  0  0  0  0  0  0  0  0
   -3.8200    3.4782    0.2522 H   0  0  0  0  0  0  0  0  0  0  0  0
   -8.9787   -2.1527    1.1752 H   0  0  0  0  0  0  0  0  0  0  0  0
   -5.4113   -1.0357    2.2092 H   0  0  0  0  0  0  0  0  0  0  0  0
   -5.9314   -2.6215    1.5489 H   0  0  0  0  0  0  0  0  0  0  0  0
   -6.9182   -1.8926    2.8297 H   0  0  0  0  0  0  0  0  0  0  0  0
    1.8968    0.4914    2.3418 H   0  0  0  0  0  0  0  0  0  0  0  0
    1.7673   -0.1432    0.7174 H   0  0  0  0  0  0  0  0  0  0  0  0
    3.0636    2.3343    1.7296 H   0  0  0  0  0  0  0  0  0  0  0  0
    2.1769    2.5751   -0.9039 H   0  0  0  0  0  0  0  0  0  0  0  0
    3.7860    2.9648   -0.2888 H   0  0  0  0  0  0  0  0  0  0  0  0
    2.9449    0.2702   -1.4633 H   0  0  0  0  0  0  0  0  0  0  0  0
    3.9232    1.5752   -2.1594 H   0  0  0  0  0  0  0  0  0  0  0  0
    4.8042   -0.9555   -2.7236 H   0  0  0  0  0  0  0  0  0  0  0  0
    6.5724   -2.6483   -3.2427 H   0  0  0  0  0  0  0  0  0  0  0  0
    6.9632    0.1440    0.7692 H   0  0  0  0  0  0  0  0  0  0  0  0
    9.8937   -0.0943    1.7501 H   0  0  0  0  0  0  0  0  0  0  0  0
    8.2699   -0.6545    2.3895 H   0  0  0  0  0  0  0  0  0  0  0  0
    8.6926   -4.0391   -1.3620 H   0  0  0  0  0  0  0  0  0  0  0  0
  1  2  1  0
  2  3  1  0
  3  4  1  0
  4  5  1  0
  5  6  2  0
  6  7  1  0
  7  8  2  0
  8  9  1  0
  9 10  2  0
  8 11  1  0
 11 12  2  0
 12 13  1  0
 13 14  2  0
 14 15  1  0
 15 16  1  0
 13 17  1  0
 17 18  1  0
 17 19  1  0
 17 20  1  0
  2 21  1  0
 21 22  1  0
 22 23  1  0
 23 24  1  0
 24 25  1  0
 25 26  1  0
 26 27  2  0
 27 28  1  0
 28 29  2  0
 29 30  1  0
 30 31  2  0
 30 32  1  0
 32 33  2  0
 32 34  1  0
 29 35  1  0
 10  5  1  0
 15 11  1  0
 31 26  1  0
  1 36  1  0
  2 37  1  0
  3 38  1  0
  3 39  1  0
  6 40  1  0
  7 41  1  0
  9 42  1  0
 10 43  1  0
 14 44  1  0
 16 45  1  0
 16 46  1  0
 16 47  1  0
 21 48  1  0
 21 49  1  0
 22 50  1  0
 23 51  1  0
 23 52  1  0
 24 53  1  0
 24 54  1  0
 27 55  1  0
 28 56  1  0
 31 57  1  0
 34 58  1  0
 34 59  1  0
 35 60  1  0
M  END
>  <Ligand ID>  (1) 
LIG0004574

>  <Ligand>  (1) 
CGP 20712A

>  <SMILES>  (1) 
OC(COc1ccc(cc1)c1nc(cn1C)C(F)(F)F)CNCCOc1ccc(c(c1)C(=O)N)O

>  <CID>  (1) 
2685.0

>  <ChEMBL ID>  (1) 
nan

>  <InChiKey>  (1) 
GKJZEKSHCJELPL-UHFFFAOYSA-N

>  <InChi>  (1) 
InChI=1S/C23H25F3N4O5/c1-30-12-20(23(24,25)26)29-22(30)14-2-4-16(5-3-14)35-13-15(31)11-28-8-9-34-17-6-7-19(32)18(10-17)21(27)33/h2-7,10,12,15,28,31-32H,8-9,11,13H2,1H3,(H2,27,33)

>  <IUPAC Name>  (1) 
2-hydroxy-5-[2-[[2-hydroxy-3-[4-[1-methyl-4-(trifluoromethyl)imidazol-2-yl]phenoxy]propyl]amino]ethoxy]benzamide

$$$$
