
     RDKit          3D

 61 65  0  0  0  0  0  0  0  0999 V2000
   -0.0908    2.0918   -1.3789 O   0  0  0  0  0  0  0  0  0  0  0  0
   -0.3167    1.0251   -0.7546 C   0  0  0  0  0  0  0  0  0  0  0  0
   -1.6332    0.7285   -0.2933 N   0  0  0  0  0  0  0  0  0  0  0  0
   -2.0987   -0.4317    0.4404 C   0  0  0  0  0  0  0  0  0  0  0  0
   -3.3832    0.0274    1.1493 C   0  0  1  0  0  0  0  0  0  0  0  0
   -3.3635    1.5122    0.9459 C   0  0  0  0  0  0  0  0  0  0  0  0
   -2.7999    1.5754   -0.4817 C   0  0  2  0  0  0  0  0  0  0  0  0
   -3.7110    0.8945   -1.4429 C   0  0  0  0  0  0  0  0  0  0  0  0
   -4.9145    0.2294   -0.8202 C   0  0  0  0  0  0  0  0  0  0  0  0
   -4.5988   -0.5248    0.4413 C   0  0  0  0  0  0  0  0  0  0  0  0
   -5.4131   -0.8177   -1.8110 C   0  0  0  0  0  0  0  0  0  0  0  0
   -6.0255    1.2289   -0.6318 C   0  0  0  0  0  0  0  0  0  0  0  0
   -3.3499   -0.3627    2.6062 C   0  0  0  0  0  0  0  0  0  0  0  0
    0.8134    0.1344   -0.5360 C   0  0  0  0  0  0  0  0  0  0  0  0
    0.9612   -1.0685   -1.2165 C   0  0  0  0  0  0  0  0  0  0  0  0
    2.0757   -1.8715   -0.9581 C   0  0  0  0  0  0  0  0  0  0  0  0
    3.0281   -1.4808   -0.0331 C   0  0  0  0  0  0  0  0  0  0  0  0
    2.8507   -0.2773    0.6283 C   0  0  0  0  0  0  0  0  0  0  0  0
    1.7665    0.4649    0.3502 N   0  0  0  0  0  0  0  0  0  0  0  0
    3.8206    0.0808    1.5507 O   0  0  0  0  0  0  0  0  0  0  0  0
    3.8474    1.2417    2.3108 C   0  0  0  0  0  0  0  0  0  0  0  0
    3.9890    2.5380    1.6005 C   0  0  0  0  0  0  0  0  0  0  0  0
    5.1946    2.8685    0.7925 C   0  0  0  0  0  0  0  0  0  0  0  0
    3.8377    2.7079    0.1336 C   0  0  0  0  0  0  0  0  0  0  0  0
    4.1430   -2.2986    0.2328 N   0  0  0  0  0  0  0  0  0  0  0  0
    4.6499   -3.5593   -0.3347 C   0  0  0  0  0  0  0  0  0  0  0  0
    6.0453   -2.9960   -0.0220 C   0  0  0  0  0  0  0  0  0  0  0  0
    5.2791   -2.3432    1.1304 C   0  0  0  0  0  0  0  0  0  0  0  0
    6.4609   -2.0070   -0.8853 F   0  0  0  0  0  0  0  0  0  0  0  0
    6.9750   -3.9252    0.3559 F   0  0  0  0  0  0  0  0  0  0  0  0
   -1.3674   -0.8204    1.1633 H   0  0  0  0  0  0  0  0  0  0  0  0
   -2.3898   -1.2488   -0.2521 H   0  0  0  0  0  0  0  0  0  0  0  0
   -4.3075    2.0303    1.0570 H   0  0  0  0  0  0  0  0  0  0  0  0
   -2.6135    1.9339    1.6426 H   0  0  0  0  0  0  0  0  0  0  0  0
   -2.5324    2.6064   -0.7683 H   0  0  0  0  0  0  0  0  0  0  0  0
   -3.2026    0.1199   -2.0662 H   0  0  0  0  0  0  0  0  0  0  0  0
   -4.1117    1.6699   -2.1438 H   0  0  0  0  0  0  0  0  0  0  0  0
   -4.3767   -1.6098    0.2225 H   0  0  0  0  0  0  0  0  0  0  0  0
   -5.4257   -0.5281    1.1483 H   0  0  0  0  0  0  0  0  0  0  0  0
   -6.5126   -0.7564   -1.9342 H   0  0  0  0  0  0  0  0  0  0  0  0
   -5.2159   -1.8557   -1.4733 H   0  0  0  0  0  0  0  0  0  0  0  0
   -5.0058   -0.6278   -2.8326 H   0  0  0  0  0  0  0  0  0  0  0  0
   -5.7034    2.2731   -0.9015 H   0  0  0  0  0  0  0  0  0  0  0  0
   -6.8968    1.0256   -1.3098 H   0  0  0  0  0  0  0  0  0  0  0  0
   -6.4670    1.2057    0.3920 H   0  0  0  0  0  0  0  0  0  0  0  0
   -2.8057    0.3692    3.2343 H   0  0  0  0  0  0  0  0  0  0  0  0
   -4.3993   -0.5381    2.9617 H   0  0  0  0  0  0  0  0  0  0  0  0
   -2.7953   -1.3306    2.6943 H   0  0  0  0  0  0  0  0  0  0  0  0
    0.2031   -1.3777   -1.9525 H   0  0  0  0  0  0  0  0  0  0  0  0
    2.1760   -2.8037   -1.4948 H   0  0  0  0  0  0  0  0  0  0  0  0
    2.9315    1.2907    2.9736 H   0  0  0  0  0  0  0  0  0  0  0  0
    4.6872    1.1964    3.0700 H   0  0  0  0  0  0  0  0  0  0  0  0
    3.6006    3.4110    2.2008 H   0  0  0  0  0  0  0  0  0  0  0  0
    5.9785    2.1401    0.5853 H   0  0  0  0  0  0  0  0  0  0  0  0
    5.5800    3.9325    0.7939 H   0  0  0  0  0  0  0  0  0  0  0  0
    3.3515    3.6536   -0.2575 H   0  0  0  0  0  0  0  0  0  0  0  0
    3.7944    1.8956   -0.5915 H   0  0  0  0  0  0  0  0  0  0  0  0
    4.4617   -3.7089   -1.3978 H   0  0  0  0  0  0  0  0  0  0  0  0
    4.4624   -4.4270    0.3276 H   0  0  0  0  0  0  0  0  0  0  0  0
    5.1796   -3.1019    1.9464 H   0  0  0  0  0  0  0  0  0  0  0  0
    5.6835   -1.4041    1.4965 H   0  0  0  0  0  0  0  0  0  0  0  0
  1  2  2  0
  2  3  1  0
  3  4  1  0
  4  5  1  0
  5  6  1  0
  6  7  1  0
  7  8  1  0
  8  9  1  0
  9 10  1  0
  9 11  1  0
  9 12  1  0
  5 13  1  1
  2 14  1  0
 14 15  2  0
 15 16  1  0
 16 17  2  0
 17 18  1  0
 18 19  2  0
 18 20  1  0
 20 21  1  0
 21 22  1  0
 22 23  1  0
 23 24  1  0
 17 25  1  0
 25 26  1  0
 26 27  1  0
 27 28  1  0
 27 29  1  0
 27 30  1  0
  7  3  1  0
 19 14  1  0
 24 22  1  0
 28 25  1  0
 10  5  1  0
  4 31  1  0
  4 32  1  0
  6 33  1  0
  6 34  1  0
  7 35  1  6
  8 36  1  0
  8 37  1  0
 10 38  1  0
 10 39  1  0
 11 40  1  0
 11 41  1  0
 11 42  1  0
 12 43  1  0
 12 44  1  0
 12 45  1  0
 13 46  1  0
 13 47  1  0
 13 48  1  0
 15 49  1  0
 16 50  1  0
 21 51  1  0
 21 52  1  0
 22 53  1  0
 23 54  1  0
 23 55  1  0
 24 56  1  0
 24 57  1  0
 26 58  1  0
 26 59  1  0
 28 60  1  0
 28 61  1  0
M  END
>  <Ligand ID>  (1) 
LIG0005120

>  <Ligand>  (1) 
CHEMBL3967975

>  <SMILES>  (1) 
O=C(N1C[C@]2(C[C@@H]1CC(C2)(C)C)C)c1ccc(c(n1)OCC1CC1)N1CC(C1)(F)F

>  <CID>  (1) 
134150620.0

>  <ChEMBL ID>  (1) 
nan

>  <InChiKey>  (1) 
DMJFIKAISKBQHN-AOMKIAJQSA-N

>  <InChi>  (1) 
InChI=1S/C23H31F2N3O2/c1-21(2)8-16-9-22(3,11-21)12-28(16)20(29)17-6-7-18(27-13-23(24,25)14-27)19(26-17)30-10-15-4-5-15/h6-7,15-16H,4-5,8-14H2,1-3H3/t16-,22-/m0/s1

>  <IUPAC Name>  (1) 
[6-(cyclopropylmethoxy)-5-(3,3-difluoroazetidin-1-yl)pyridin-2-yl]-[(1R,5S)-1,3,3-trimethyl-6-azabicyclo[3.2.1]octan-6-yl]methanone

$$$$
