
     RDKit          3D

 49 52  0  0  0  0  0  0  0  0999 V2000
   -2.9599   -2.2892    0.0204 N   0  0  0  0  0  0  0  0  0  0  0  0
   -2.9700   -1.1598   -0.2710 C   0  0  0  0  0  0  0  0  0  0  0  0
   -2.9996    0.2144   -0.6218 C   0  0  0  0  0  0  0  0  0  0  0  0
   -1.8427    0.9176   -0.9378 C   0  0  0  0  0  0  0  0  0  0  0  0
   -0.3013    0.0001   -0.8808 S   0  0  0  0  0  0  0  0  0  0  0  0
    0.4335    0.0759    0.7514 C   0  0  0  0  0  0  0  0  0  0  0  0
    1.7290   -0.6825    0.8360 C   0  0  0  0  0  0  0  0  0  0  0  0
    1.7520   -2.0238    1.1872 C   0  0  0  0  0  0  0  0  0  0  0  0
    2.9367   -2.7445    1.2722 C   0  0  0  0  0  0  0  0  0  0  0  0
    4.0793   -2.0944    1.0000 N   0  0  0  0  0  0  0  0  0  0  0  0
    4.1378   -0.7857    0.6503 C   0  0  0  0  0  0  0  0  0  0  0  0
    2.9441   -0.0800    0.5700 C   0  0  0  0  0  0  0  0  0  0  0  0
    5.3995   -0.1105    0.3618 C   0  0  0  0  0  0  0  0  0  0  0  0
    5.4040    1.1046    0.0405 O   0  0  0  0  0  0  0  0  0  0  0  0
    6.6095   -0.8509    0.4516 N   0  0  0  0  0  0  0  0  0  0  0  0
    7.8946   -0.2440    0.1792 C   0  0  0  0  0  0  0  0  0  0  0  0
    8.8952   -0.4698    1.3053 C   0  0  0  0  0  0  0  0  0  0  0  0
    9.0963   -1.0440   -0.0537 C   0  0  0  0  0  0  0  0  0  0  0  0
   -1.8814    2.2287   -1.2714 N   0  0  0  0  0  0  0  0  0  0  0  0
   -3.0461    2.9099   -1.3115 C   0  0  0  0  0  0  0  0  0  0  0  0
   -4.2282    2.2663   -1.0079 C   0  0  0  0  0  0  0  0  0  0  0  0
   -4.1979    0.9332   -0.6677 C   0  0  0  0  0  0  0  0  0  0  0  0
   -5.4020    0.1726   -0.3314 C   0  0  0  0  0  0  0  0  0  0  0  0
   -6.1175   -0.4909   -1.3234 C   0  0  0  0  0  0  0  0  0  0  0  0
   -7.2533   -1.2187   -1.0641 C   0  0  0  0  0  0  0  0  0  0  0  0
   -7.6735   -1.2706    0.2570 C   0  0  0  0  0  0  0  0  0  0  0  0
   -7.0004   -0.6320    1.2709 C   0  0  0  0  0  0  0  0  0  0  0  0
   -5.8496    0.0999    0.9771 C   0  0  0  0  0  0  0  0  0  0  0  0
   -5.4885    2.9680   -1.0422 C   0  0  0  0  0  0  0  0  0  0  0  0
   -6.5154    3.5172   -1.0687 N   0  0  0  0  0  0  0  0  0  0  0  0
   -3.1020    4.2964   -1.6628 N   0  0  0  0  0  0  0  0  0  0  0  0
   -0.2749   -0.2698    1.5322 H   0  0  0  0  0  0  0  0  0  0  0  0
    0.7011    1.1377    0.9663 H   0  0  0  0  0  0  0  0  0  0  0  0
    0.7980   -2.5164    1.4012 H   0  0  0  0  0  0  0  0  0  0  0  0
    2.9565   -3.7992    1.5480 H   0  0  0  0  0  0  0  0  0  0  0  0
    2.9090    0.9724    0.2960 H   0  0  0  0  0  0  0  0  0  0  0  0
    6.6039   -1.8725    0.7218 H   0  0  0  0  0  0  0  0  0  0  0  0
    7.8246    0.8294   -0.1016 H   0  0  0  0  0  0  0  0  0  0  0  0
    9.5648    0.3663    1.6135 H   0  0  0  0  0  0  0  0  0  0  0  0
    8.6191   -1.1194    2.1603 H   0  0  0  0  0  0  0  0  0  0  0  0
    9.9146   -0.6171   -0.6709 H   0  0  0  0  0  0  0  0  0  0  0  0
    8.9399   -2.1531   -0.1871 H   0  0  0  0  0  0  0  0  0  0  0  0
   -5.7904   -0.4538   -2.3697 H   0  0  0  0  0  0  0  0  0  0  0  0
   -7.7920   -1.7277   -1.8638 H   0  0  0  0  0  0  0  0  0  0  0  0
   -8.5652   -1.8416    0.4626 H   0  0  0  0  0  0  0  0  0  0  0  0
   -7.3678   -0.7015    2.2904 H   0  0  0  0  0  0  0  0  0  0  0  0
   -5.2904    0.6186    1.7521 H   0  0  0  0  0  0  0  0  0  0  0  0
   -3.3773    4.6215   -2.6119 H   0  0  0  0  0  0  0  0  0  0  0  0
   -2.8555    5.0127   -0.9335 H   0  0  0  0  0  0  0  0  0  0  0  0
  1  2  3  0
  2  3  1  0
  3  4  2  0
  4  5  1  0
  5  6  1  0
  6  7  1  0
  7  8  2  0
  8  9  1  0
  9 10  2  0
 10 11  1  0
 11 12  2  0
 11 13  1  0
 13 14  2  0
 13 15  1  0
 15 16  1  0
 16 17  1  0
 17 18  1  0
  4 19  1  0
 19 20  2  0
 20 21  1  0
 21 22  2  0
 22 23  1  0
 23 24  2  0
 24 25  1  0
 25 26  2  0
 26 27  1  0
 27 28  2  0
 21 29  1  0
 29 30  3  0
 20 31  1  0
 22  3  1  0
 28 23  1  0
 12  7  1  0
 18 16  1  0
  6 32  1  0
  6 33  1  0
  8 34  1  0
  9 35  1  0
 12 36  1  0
 15 37  1  0
 16 38  1  0
 17 39  1  0
 17 40  1  0
 18 41  1  0
 18 42  1  0
 24 43  1  0
 25 44  1  0
 26 45  1  0
 27 46  1  0
 28 47  1  0
 31 48  1  0
 31 49  1  0
M  END
>  <Ligand ID>  (1) 
LIG0002973

>  <Ligand>  (1) 
SCHEMBL3363543

>  <SMILES>  (1) 
N#Cc1c(SCc2ccnc(c2)C(=O)NC2CC2)nc(c(c1c1ccccc1)C#N)N

>  <CID>  (1) 
68613928.0

>  <ChEMBL ID>  (1) 
nan

>  <InChiKey>  (1) 
ZZDYGBAXSRKELQ-UHFFFAOYSA-N

>  <InChi>  (1) 
InChI=1S/C23H18N6OS/c24-11-17-20(15-4-2-1-3-5-15)18(12-25)23(29-21(17)26)31-13-14-8-9-27-19(10-14)22(30)28-16-6-7-16/h1-5,8-10,16H,6-7,13H2,(H2,26,29)(H,28,30)

>  <IUPAC Name>  (1) 
4-[(6-amino-3,5-dicyano-4-phenylpyridin-2-yl)sulfanylmethyl]-N-cyclopropylpyridine-2-carboxamide

$$$$
