
     RDKit          3D

 32 33  0  0  0  0  0  0  0  0999 V2000
   -3.3133    2.2927    0.6404 C   0  0  0  0  0  0  0  0  0  0  0  0
   -3.4685    1.1594   -0.0110 C   0  0  0  0  0  0  0  0  0  0  0  0
   -2.6186    0.7827   -1.1746 C   0  0  0  0  0  0  0  0  0  0  0  0
   -1.8897   -0.4873   -0.8831 C   0  0  0  0  0  0  0  0  0  0  0  0
   -2.3409   -1.6469   -1.4766 C   0  0  0  0  0  0  0  0  0  0  0  0
   -1.6957   -2.8426   -1.2354 C   0  0  0  0  0  0  0  0  0  0  0  0
   -0.6066   -2.8278   -0.3950 C   0  0  0  0  0  0  0  0  0  0  0  0
   -0.1461   -1.6554    0.2090 C   0  0  0  0  0  0  0  0  0  0  0  0
   -0.7844   -0.4693   -0.0298 C   0  0  0  0  0  0  0  0  0  0  0  0
   -0.4351    0.7472    0.4984 O   0  0  0  0  0  0  0  0  0  0  0  0
    0.6527    0.9493    1.3679 C   0  0  0  0  0  0  0  0  0  0  0  0
    1.9456    0.5893    0.7336 C   0  0  0  0  0  0  0  0  0  0  0  0
    2.2112    0.2076   -0.4645 N   0  0  0  0  0  0  0  0  0  0  0  0
    3.6522   -0.0373   -0.6310 C   0  0  0  0  0  0  0  0  0  0  0  0
    4.2871    0.7530    0.5118 C   0  0  0  0  0  0  0  0  0  0  0  0
    3.1822    0.6456    1.4766 N   0  0  0  0  0  0  0  0  0  0  0  0
   -2.5299    2.9721    0.3050 H   0  0  0  0  0  0  0  0  0  0  0  0
   -3.9379    2.5371    1.4729 H   0  0  0  0  0  0  0  0  0  0  0  0
   -4.2323    0.4487    0.2810 H   0  0  0  0  0  0  0  0  0  0  0  0
   -1.8872    1.5984   -1.3245 H   0  0  0  0  0  0  0  0  0  0  0  0
   -3.2028    0.6921   -2.1140 H   0  0  0  0  0  0  0  0  0  0  0  0
   -3.2098   -1.5881   -2.1326 H   0  0  0  0  0  0  0  0  0  0  0  0
   -2.0678   -3.7476   -1.7140 H   0  0  0  0  0  0  0  0  0  0  0  0
   -0.0853   -3.7562   -0.1915 H   0  0  0  0  0  0  0  0  0  0  0  0
    0.7002   -1.6858    0.8613 H   0  0  0  0  0  0  0  0  0  0  0  0
    0.6233    2.0449    1.6307 H   0  0  0  0  0  0  0  0  0  0  0  0
    0.5373    0.3400    2.2911 H   0  0  0  0  0  0  0  0  0  0  0  0
    3.9435    0.3245   -1.6252 H   0  0  0  0  0  0  0  0  0  0  0  0
    3.8446   -1.1208   -0.4855 H   0  0  0  0  0  0  0  0  0  0  0  0
    4.3476    1.8305    0.2219 H   0  0  0  0  0  0  0  0  0  0  0  0
    5.2198    0.3332    0.8758 H   0  0  0  0  0  0  0  0  0  0  0  0
    3.3049    0.6170    2.5108 H   0  0  0  0  0  0  0  0  0  0  0  0
  1  2  2  0
  2  3  1  0
  3  4  1  0
  4  5  2  0
  5  6  1  0
  6  7  2  0
  7  8  1  0
  8  9  2  0
  9 10  1  0
 10 11  1  0
 11 12  1  0
 12 13  2  0
 13 14  1  0
 14 15  1  0
 15 16  1  0
  9  4  1  0
 16 12  1  0
  1 17  1  0
  1 18  1  0
  2 19  1  0
  3 20  1  0
  3 21  1  0
  5 22  1  0
  6 23  1  0
  7 24  1  0
  8 25  1  0
 11 26  1  0
 11 27  1  0
 14 28  1  0
 14 29  1  0
 15 30  1  0
 15 31  1  0
 16 32  1  0
M  END
>  <Ligand ID>  (1) 
LIG0005617

>  <Ligand>  (1) 
CHEMBL14107

>  <SMILES>  (1) 
C=CCc1ccccc1OCC1=NCCN1

>  <CID>  (1) 
44269006.0

>  <ChEMBL ID>  (1) 
nan

>  <InChiKey>  (1) 
YFPXOLILPOTYIP-UHFFFAOYSA-N

>  <InChi>  (1) 
InChI=1S/C13H16N2O/c1-2-5-11-6-3-4-7-12(11)16-10-13-14-8-9-15-13/h2-4,6-7H,1,5,8-10H2,(H,14,15)

>  <IUPAC Name>  (1) 
2-[(2-prop-2-enylphenoxy)methyl]-4,5-dihydro-1H-imidazole

$$$$
