
     RDKit          3D

 93 96  0  0  0  0  0  0  0  0999 V2000
    1.7285    2.8130    1.4230 O   0  0  0  0  0  0  0  0  0  0  0  0
    1.4194    3.0760    0.2305 C   0  0  0  0  0  0  0  0  0  0  0  0
    0.0870    3.3415   -0.1781 N   0  0  0  0  0  0  0  0  0  0  0  0
   -1.0700    3.3853    0.6528 C   0  0  2  0  0  0  0  0  0  0  0  0
   -1.8957    2.1666    0.5281 C   0  0  0  0  0  0  0  0  0  0  0  0
   -1.3978    1.2158   -0.1691 O   0  0  0  0  0  0  0  0  0  0  0  0
   -3.1585    1.9767    1.1026 N   0  0  0  0  0  0  0  0  0  0  0  0
   -3.9190    0.7692    0.9599 C   0  0  0  0  0  0  0  0  0  0  0  0
   -4.6174    0.7307   -0.4032 C   0  0  0  0  0  0  0  0  0  0  0  0
   -5.2090   -0.6510   -0.5433 C   0  0  0  0  0  0  0  0  0  0  0  0
   -6.2602   -0.8448    0.4041 N   0  0  0  0  0  0  0  0  0  0  0  0
   -6.2715    0.2074    1.4209 C   0  0  0  0  0  0  0  0  0  0  0  0
   -4.8997    0.4538    2.0082 C   0  0  0  0  0  0  0  0  0  0  0  0
   -6.3777   -2.1357    0.9690 C   0  0  0  0  0  0  0  0  0  0  0  0
   -6.7610   -3.2786    0.1369 C   0  0  0  0  0  0  0  0  0  0  0  0
   -8.0428   -3.2259   -0.5665 C   0  0  0  0  0  0  0  0  0  0  0  0
   -9.2607   -3.6272   -0.0666 C   0  0  0  0  0  0  0  0  0  0  0  0
  -10.4383   -3.5621   -0.8280 C   0  0  0  0  0  0  0  0  0  0  0  0
  -10.3997   -3.0875   -2.1133 C   0  0  0  0  0  0  0  0  0  0  0  0
   -9.1920   -2.6819   -2.6299 C   0  0  0  0  0  0  0  0  0  0  0  0
   -8.0072   -2.7377   -1.8902 C   0  0  0  0  0  0  0  0  0  0  0  0
   -1.9278    4.5957    0.4275 C   0  0  0  0  0  0  0  0  0  0  0  0
   -2.4429    4.7110   -0.9532 C   0  0  0  0  0  0  0  0  0  0  0  0
   -1.6439    5.3600   -1.8756 C   0  0  0  0  0  0  0  0  0  0  0  0
   -2.0741    5.5031   -3.2054 C   0  0  0  0  0  0  0  0  0  0  0  0
   -3.3115    4.9921   -3.6081 C   0  0  0  0  0  0  0  0  0  0  0  0
   -4.0632    4.3636   -2.6714 C   0  0  0  0  0  0  0  0  0  0  0  0
   -3.6584    4.2145   -1.3662 C   0  0  0  0  0  0  0  0  0  0  0  0
    2.4562    3.1343   -0.8555 C   0  0  0  0  0  0  0  0  0  0  0  0
    3.7468    2.8371   -0.2997 N   0  0  0  0  0  0  0  0  0  0  0  0
    4.1255    1.5882    0.2618 C   0  0  0  0  0  0  0  0  0  0  0  0
    3.3058    0.6387    0.2806 O   0  0  0  0  0  0  0  0  0  0  0  0
    5.4888    1.4663    0.8019 C   0  0  2  0  0  0  0  0  0  0  0  0
    5.7610    0.0470    1.0484 N   0  0  0  0  0  0  0  0  0  0  0  0
    7.0978   -0.3739    0.9310 C   0  0  0  0  0  0  0  0  0  0  0  0
    7.9673    0.5179    0.6299 O   0  0  0  0  0  0  0  0  0  0  0  0
    7.6081   -1.7438    1.1237 C   0  0  2  0  0  0  0  0  0  0  0  0
    8.7874   -1.9445    0.1981 C   0  0  0  0  0  0  0  0  0  0  0  0
    9.4014   -3.2812    0.2729 C   0  0  0  0  0  0  0  0  0  0  0  0
    8.9545   -4.2436   -0.6116 C   0  0  0  0  0  0  0  0  0  0  0  0
    9.4439   -5.5331   -0.6271 C   0  0  0  0  0  0  0  0  0  0  0  0
   10.4204   -5.8357    0.2964 C   0  0  0  0  0  0  0  0  0  0  0  0
   10.9141   -4.9211    1.2105 C   0  0  0  0  0  0  0  0  0  0  0  0
   10.3769   -3.6532    1.1644 C   0  0  0  0  0  0  0  0  0  0  0  0
   10.8983   -7.1622    0.2550 O   0  0  0  0  0  0  0  0  0  0  0  0
    6.6458   -2.7833    1.1318 N   0  0  0  0  0  0  0  0  0  0  0  0
    5.5864    2.2153    2.1513 C   0  0  0  0  0  0  0  0  0  0  0  0
   -0.0853    3.5244   -1.2190 H   0  0  0  0  0  0  0  0  0  0  0  0
   -0.7135    3.3919    1.7235 H   0  0  0  0  0  0  0  0  0  0  0  0
   -3.5890    2.7585    1.6768 H   0  0  0  0  0  0  0  0  0  0  0  0
   -3.1730   -0.0786    0.8589 H   0  0  0  0  0  0  0  0  0  0  0  0
   -3.8799    0.8392   -1.2269 H   0  0  0  0  0  0  0  0  0  0  0  0
   -5.3750    1.5051   -0.5011 H   0  0  0  0  0  0  0  0  0  0  0  0
   -4.3908   -1.3587   -0.5510 H   0  0  0  0  0  0  0  0  0  0  0  0
   -5.6634   -0.6757   -1.5720 H   0  0  0  0  0  0  0  0  0  0  0  0
   -6.6791    1.1237    0.9509 H   0  0  0  0  0  0  0  0  0  0  0  0
   -7.0067   -0.0974    2.1875 H   0  0  0  0  0  0  0  0  0  0  0  0
   -4.6419   -0.4568    2.6100 H   0  0  0  0  0  0  0  0  0  0  0  0
   -5.0226    1.2600    2.7761 H   0  0  0  0  0  0  0  0  0  0  0  0
   -5.3681   -2.3781    1.4201 H   0  0  0  0  0  0  0  0  0  0  0  0
   -7.0391   -2.0526    1.8610 H   0  0  0  0  0  0  0  0  0  0  0  0
   -6.8310   -4.1748    0.8200 H   0  0  0  0  0  0  0  0  0  0  0  0
   -5.9553   -3.5677   -0.5792 H   0  0  0  0  0  0  0  0  0  0  0  0
   -9.2916   -3.9944    0.9316 H   0  0  0  0  0  0  0  0  0  0  0  0
  -11.3900   -3.8813   -0.4168 H   0  0  0  0  0  0  0  0  0  0  0  0
  -11.3039   -3.0260   -2.7138 H   0  0  0  0  0  0  0  0  0  0  0  0
   -9.1039   -2.2948   -3.6483 H   0  0  0  0  0  0  0  0  0  0  0  0
   -7.0760   -2.4132   -2.3422 H   0  0  0  0  0  0  0  0  0  0  0  0
   -1.4443    5.5622    0.6801 H   0  0  0  0  0  0  0  0  0  0  0  0
   -2.7996    4.5306    1.1095 H   0  0  0  0  0  0  0  0  0  0  0  0
   -0.6784    5.7841   -1.6498 H   0  0  0  0  0  0  0  0  0  0  0  0
   -1.4545    6.0158   -3.9398 H   0  0  0  0  0  0  0  0  0  0  0  0
   -3.5809    5.1355   -4.6464 H   0  0  0  0  0  0  0  0  0  0  0  0
   -5.0484    3.9477   -2.9446 H   0  0  0  0  0  0  0  0  0  0  0  0
   -4.3224    3.7084   -0.6836 H   0  0  0  0  0  0  0  0  0  0  0  0
    2.1517    2.3355   -1.5700 H   0  0  0  0  0  0  0  0  0  0  0  0
    2.4191    4.1374   -1.3097 H   0  0  0  0  0  0  0  0  0  0  0  0
    4.4636    3.6273   -0.3168 H   0  0  0  0  0  0  0  0  0  0  0  0
    6.2434    1.9595    0.1749 H   0  0  0  0  0  0  0  0  0  0  0  0
    5.0327   -0.6417    1.2955 H   0  0  0  0  0  0  0  0  0  0  0  0
    8.0178   -1.7178    2.2053 H   0  0  0  0  0  0  0  0  0  0  0  0
    8.4610   -1.6920   -0.8251 H   0  0  0  0  0  0  0  0  0  0  0  0
    9.5137   -1.1264    0.4694 H   0  0  0  0  0  0  0  0  0  0  0  0
    8.1803   -4.0353   -1.3667 H   0  0  0  0  0  0  0  0  0  0  0  0
    9.0766   -6.2774   -1.3398 H   0  0  0  0  0  0  0  0  0  0  0  0
   11.6814   -5.2257    1.9090 H   0  0  0  0  0  0  0  0  0  0  0  0
   10.7231   -2.8820    1.8509 H   0  0  0  0  0  0  0  0  0  0  0  0
   11.7929   -7.3059    0.7139 H   0  0  0  0  0  0  0  0  0  0  0  0
    5.7306   -2.5136    1.4822 H   0  0  0  0  0  0  0  0  0  0  0  0
    6.6976   -3.4902    0.3938 H   0  0  0  0  0  0  0  0  0  0  0  0
    4.6773    2.7952    2.3706 H   0  0  0  0  0  0  0  0  0  0  0  0
    6.4217    2.9286    2.1728 H   0  0  0  0  0  0  0  0  0  0  0  0
    5.7019    1.4744    2.9916 H   0  0  0  0  0  0  0  0  0  0  0  0
  1  2  2  0
  2  3  1  0
  3  4  1  0
  4  5  1  0
  5  6  2  0
  5  7  1  0
  7  8  1  0
  8  9  1  0
  9 10  1  0
 10 11  1  0
 11 12  1  0
 12 13  1  0
 11 14  1  0
 14 15  1  0
 15 16  1  0
 16 17  2  0
 17 18  1  0
 18 19  2  0
 19 20  1  0
 20 21  2  0
  4 22  1  0
 22 23  1  0
 23 24  2  0
 24 25  1  0
 25 26  2  0
 26 27  1  0
 27 28  2  0
  2 29  1  0
 29 30  1  0
 30 31  1  0
 31 32  2  0
 31 33  1  0
 33 34  1  0
 34 35  1  0
 35 36  2  0
 35 37  1  0
 37 38  1  0
 38 39  1  0
 39 40  2  0
 40 41  1  0
 41 42  2  0
 42 43  1  0
 43 44  2  0
 42 45  1  0
 37 46  1  0
 33 47  1  0
 13  8  1  0
 21 16  1  0
 28 23  1  0
 44 39  1  0
  3 48  1  0
  4 49  1  1
  7 50  1  0
  8 51  1  0
  9 52  1  0
  9 53  1  0
 10 54  1  0
 10 55  1  0
 12 56  1  0
 12 57  1  0
 13 58  1  0
 13 59  1  0
 14 60  1  0
 14 61  1  0
 15 62  1  0
 15 63  1  0
 17 64  1  0
 18 65  1  0
 19 66  1  0
 20 67  1  0
 21 68  1  0
 22 69  1  0
 22 70  1  0
 24 71  1  0
 25 72  1  0
 26 73  1  0
 27 74  1  0
 28 75  1  0
 29 76  1  0
 29 77  1  0
 30 78  1  0
 33 79  1  6
 34 80  1  0
 37 81  1  1
 38 82  1  0
 38 83  1  0
 40 84  1  0
 41 85  1  0
 43 86  1  0
 44 87  1  0
 45 88  1  0
 46 89  1  0
 46 90  1  0
 47 91  1  0
 47 92  1  0
 47 93  1  0
M  END
>  <Ligand ID>  (1) 
LIG0005391

>  <Ligand>  (1) 
4-anilidopiperidine, 10

>  <SMILES>  (1) 
O=C(N[C@H](C(=O)NC1CCN(CC1)CCc1ccccc1)Cc1ccccc1)CNC(=O)[C@H](NC(=O)[C@H](Cc1ccc(cc1)O)N)C

>  <CID>  (1) 
23635163.0

>  <ChEMBL ID>  (1) 
nan

>  <InChiKey>  (1) 
YICNJKARNVERTG-LNMMVMNESA-N

>  <InChi>  (1) 
InChI=1S/C36H46N6O5/c1-25(39-35(46)31(37)22-28-12-14-30(43)15-13-28)34(45)38-24-33(44)41-32(23-27-10-6-3-7-11-27)36(47)40-29-17-20-42(21-18-29)19-16-26-8-4-2-5-9-26/h2-15,25,29,31-32,43H,16-24,37H2,1H3,(H,38,45)(H,39,46)(H,40,47)(H,41,44)/t25-,31+,32+/m1/s1

>  <IUPAC Name>  (1) 
(2S)-2-amino-3-(4-hydroxyphenyl)-N-[(2R)-1-oxo-1-[[2-oxo-2-[[(2S)-1-oxo-3-phenyl-1-[[1-(2-phenylethyl)piperidin-4-yl]amino]propan-2-yl]amino]ethyl]amino]propan-2-yl]propanamide

$$$$
