
     RDKit          3D

 23 22  0  0  0  0  0  0  0  0999 V2000
   -3.8095   -1.4592    0.5076 C   0  0  0  0  0  0  0  0  0  0  0  0
   -4.1490    0.0035    0.5174 C   0  0  0  0  0  0  0  0  0  0  0  0
   -2.9660    0.9056    0.3401 C   0  0  0  0  0  0  0  0  0  0  0  0
   -1.7914    0.3274   -0.8984 S   0  0  0  0  0  0  0  0  0  0  0  0
   -0.1729    1.7258   -0.9081 S   0  0  0  0  0  0  0  0  0  0  0  0
    1.4254    0.8141    0.1842 S   0  0  0  0  0  0  0  0  0  0  0  0
    2.6080    0.2373   -1.0685 C   0  0  0  0  0  0  0  0  0  0  0  0
    3.7063   -0.6142   -0.4491 C   0  0  0  0  0  0  0  0  0  0  0  0
    4.5503    0.2404    0.4595 C   0  0  0  0  0  0  0  0  0  0  0  0
   -4.7096   -1.9995    0.8972 H   0  0  0  0  0  0  0  0  0  0  0  0
   -3.5165   -1.8385   -0.4948 H   0  0  0  0  0  0  0  0  0  0  0  0
   -3.0026   -1.6374    1.2442 H   0  0  0  0  0  0  0  0  0  0  0  0
   -4.5703    0.2186    1.5323 H   0  0  0  0  0  0  0  0  0  0  0  0
   -4.9285    0.1690   -0.2607 H   0  0  0  0  0  0  0  0  0  0  0  0
   -3.3590    1.8870   -0.0295 H   0  0  0  0  0  0  0  0  0  0  0  0
   -2.4737    1.1503    1.3153 H   0  0  0  0  0  0  0  0  0  0  0  0
    3.1063    1.1617   -1.4556 H   0  0  0  0  0  0  0  0  0  0  0  0
    2.1161   -0.2602   -1.9193 H   0  0  0  0  0  0  0  0  0  0  0  0
    3.3203   -1.5252    0.0273 H   0  0  0  0  0  0  0  0  0  0  0  0
    4.3579   -0.9174   -1.3068 H   0  0  0  0  0  0  0  0  0  0  0  0
    4.6303   -0.2980    1.4313 H   0  0  0  0  0  0  0  0  0  0  0  0
    5.5552    0.4651    0.0219 H   0  0  0  0  0  0  0  0  0  0  0  0
    4.0728    1.2441    0.5940 H   0  0  0  0  0  0  0  0  0  0  0  0
  1  2  1  0
  2  3  1  0
  3  4  1  0
  4  5  1  0
  5  6  1  0
  6  7  1  0
  7  8  1  0
  8  9  1  0
  1 10  1  0
  1 11  1  0
  1 12  1  0
  2 13  1  0
  2 14  1  0
  3 15  1  0
  3 16  1  0
  7 17  1  0
  7 18  1  0
  8 19  1  0
  8 20  1  0
  9 21  1  0
  9 22  1  0
  9 23  1  0
M  END
>  <Ligand ID>  (1) 
LIG0000557

>  <Ligand>  (1) 
Dipropyl trisulfide

>  <SMILES>  (1) 
CCCSSSCCC

>  <CID>  (1) 
22383.0

>  <ChEMBL ID>  (1) 
nan

>  <InChiKey>  (1) 
GAZXPZNJTZIGBO-UHFFFAOYSA-N

>  <InChi>  (1) 
InChI=1S/C6H14S3/c1-3-5-7-9-8-6-4-2/h3-6H2,1-2H3

>  <IUPAC Name>  (1) 
1-(propyltrisulfanyl)propane

$$$$
