
     RDKit          3D

 53 54  0  0  0  0  0  0  0  0999 V2000
   -6.6896    0.7036   -1.5535 O   0  0  0  0  0  0  0  0  0  0  0  0
   -5.5820   -0.1048   -1.7273 C   0  0  0  0  0  0  0  0  0  0  0  0
   -4.8090    0.1037   -2.7221 O   0  0  0  0  0  0  0  0  0  0  0  0
   -5.2876   -1.2185   -0.7584 C   0  0  0  0  0  0  0  0  0  0  0  0
   -6.2749   -1.2580    0.3497 C   0  0  0  0  0  0  0  0  0  0  0  0
   -6.3637   -0.1158    1.1644 N   0  0  0  0  0  0  0  0  0  0  0  0
   -5.3210    0.2142    2.0508 C   0  0  0  0  0  0  0  0  0  0  0  0
   -4.0415    0.6656    1.4906 C   0  0  0  0  0  0  0  0  0  0  0  0
   -2.9579   -0.0391    1.7632 C   0  0  0  0  0  0  0  0  0  0  0  0
   -1.6257    0.2672    1.2933 C   0  0  0  0  0  0  0  0  0  0  0  0
   -0.8532   -0.7999    0.8518 C   0  0  0  0  0  0  0  0  0  0  0  0
    0.4367   -0.5953    0.3913 C   0  0  0  0  0  0  0  0  0  0  0  0
    1.0229    0.6401    0.3421 C   0  0  0  0  0  0  0  0  0  0  0  0
    0.2329    1.7084    0.7908 C   0  0  0  0  0  0  0  0  0  0  0  0
   -1.0555    1.5101    1.2513 C   0  0  0  0  0  0  0  0  0  0  0  0
    2.2774    0.9424   -0.0892 O   0  0  0  0  0  0  0  0  0  0  0  0
    3.2565    0.0971   -0.5536 C   0  0  0  0  0  0  0  0  0  0  0  0
    3.7957   -0.9195    0.3889 C   0  0  0  0  0  0  0  0  0  0  0  0
    4.8453   -1.7522   -0.3487 C   0  0  0  0  0  0  0  0  0  0  0  0
    5.9602   -0.9248   -0.8485 C   0  0  0  0  0  0  0  0  0  0  0  0
    5.9674   -0.3501   -2.1020 C   0  0  0  0  0  0  0  0  0  0  0  0
    7.0157    0.4190   -2.5665 C   0  0  0  0  0  0  0  0  0  0  0  0
    8.1094    0.6308   -1.7545 C   0  0  0  0  0  0  0  0  0  0  0  0
    8.1066    0.0581   -0.4996 C   0  0  0  0  0  0  0  0  0  0  0  0
    7.0551   -0.7154   -0.0289 C   0  0  0  0  0  0  0  0  0  0  0  0
   -3.9691    1.8832    0.6494 C   0  0  0  0  0  0  0  0  0  0  0  0
   -6.6470    1.6412   -1.9201 H   0  0  0  0  0  0  0  0  0  0  0  0
   -4.2569   -1.2477   -0.4241 H   0  0  0  0  0  0  0  0  0  0  0  0
   -5.4373   -2.1666   -1.3606 H   0  0  0  0  0  0  0  0  0  0  0  0
   -7.3077   -1.5256   -0.0176 H   0  0  0  0  0  0  0  0  0  0  0  0
   -6.0113   -2.1427    1.0154 H   0  0  0  0  0  0  0  0  0  0  0  0
   -7.3108    0.1231    1.5120 H   0  0  0  0  0  0  0  0  0  0  0  0
   -5.1769   -0.5870    2.8250 H   0  0  0  0  0  0  0  0  0  0  0  0
   -5.7034    1.0845    2.6782 H   0  0  0  0  0  0  0  0  0  0  0  0
   -3.0572   -0.9297    2.3946 H   0  0  0  0  0  0  0  0  0  0  0  0
   -1.2630   -1.7981    0.8677 H   0  0  0  0  0  0  0  0  0  0  0  0
    0.9647   -1.4673    0.0531 H   0  0  0  0  0  0  0  0  0  0  0  0
    0.6421    2.7295    0.7785 H   0  0  0  0  0  0  0  0  0  0  0  0
   -1.5936    2.3609    1.5836 H   0  0  0  0  0  0  0  0  0  0  0  0
    4.1290    0.7329   -0.8938 H   0  0  0  0  0  0  0  0  0  0  0  0
    2.8430   -0.4585   -1.4285 H   0  0  0  0  0  0  0  0  0  0  0  0
    4.3269   -0.4308    1.2691 H   0  0  0  0  0  0  0  0  0  0  0  0
    3.1104   -1.6244    0.8339 H   0  0  0  0  0  0  0  0  0  0  0  0
    4.3014   -2.1545   -1.2506 H   0  0  0  0  0  0  0  0  0  0  0  0
    5.1668   -2.5930    0.2901 H   0  0  0  0  0  0  0  0  0  0  0  0
    5.0930   -0.5306   -2.7270 H   0  0  0  0  0  0  0  0  0  0  0  0
    7.0005    0.8615   -3.5557 H   0  0  0  0  0  0  0  0  0  0  0  0
    8.9373    1.2254   -2.0960 H   0  0  0  0  0  0  0  0  0  0  0  0
    8.9510    0.2068    0.1580 H   0  0  0  0  0  0  0  0  0  0  0  0
    7.0611   -1.1607    0.9585 H   0  0  0  0  0  0  0  0  0  0  0  0
   -3.1845    1.8712   -0.1132 H   0  0  0  0  0  0  0  0  0  0  0  0
   -3.8879    2.8116    1.2538 H   0  0  0  0  0  0  0  0  0  0  0  0
   -4.9411    2.0175    0.0910 H   0  0  0  0  0  0  0  0  0  0  0  0
  1  2  1  0
  2  3  2  0
  2  4  1  0
  4  5  1  0
  5  6  1  0
  6  7  1  0
  7  8  1  0
  8  9  2  0
  9 10  1  0
 10 11  2  0
 11 12  1  0
 12 13  2  0
 13 14  1  0
 14 15  2  0
 13 16  1  0
 16 17  1  0
 17 18  1  0
 18 19  1  0
 19 20  1  0
 20 21  2  0
 21 22  1  0
 22 23  2  0
 23 24  1  0
 24 25  2  0
  8 26  1  0
 15 10  1  0
 25 20  1  0
  1 27  1  0
  4 28  1  0
  4 29  1  0
  5 30  1  0
  5 31  1  0
  6 32  1  0
  7 33  1  0
  7 34  1  0
  9 35  1  0
 11 36  1  0
 12 37  1  0
 14 38  1  0
 15 39  1  0
 17 40  1  0
 17 41  1  0
 18 42  1  0
 18 43  1  0
 19 44  1  0
 19 45  1  0
 21 46  1  0
 22 47  1  0
 23 48  1  0
 24 49  1  0
 25 50  1  0
 26 51  1  0
 26 52  1  0
 26 53  1  0
M  END
>  <Ligand ID>  (1) 
LIG0005563

>  <Ligand>  (1) 
CHEMBL1683046

>  <SMILES>  (1) 
OC(=O)CCNC/C(=C/c1ccc(cc1)OCCCc1ccccc1)/C

>  <CID>  (1) 
23121374.0

>  <ChEMBL ID>  (1) 
nan

>  <InChiKey>  (1) 
LWGLHUCXBRBGGT-FBMGVBCBSA-N

>  <InChi>  (1) 
InChI=1S/C22H27NO3/c1-18(17-23-14-13-22(24)25)16-20-9-11-21(12-10-20)26-15-5-8-19-6-3-2-4-7-19/h2-4,6-7,9-12,16,23H,5,8,13-15,17H2,1H3,(H,24,25)/b18-16+

>  <IUPAC Name>  (1) 
3-[[(E)-2-methyl-3-[4-(3-phenylpropoxy)phenyl]prop-2-enyl]amino]propanoic acid

$$$$
