
     RDKit          3D

 43 45  0  0  0  0  0  0  0  0999 V2000
   -4.4075    2.9310    0.7476 C   0  0  0  0  0  0  0  0  0  0  0  0
   -3.2338    2.0128    0.9982 C   0  0  0  0  0  0  0  0  0  0  0  0
   -2.7318    1.5745   -0.4105 C   0  0  0  0  0  0  0  0  0  0  0  0
   -1.6233    0.7087   -0.3095 N   0  0  0  0  0  0  0  0  0  0  0  0
   -0.3206    1.3592   -0.2811 C   0  0  0  0  0  0  0  0  0  0  0  0
   -0.2705    2.5215   -0.7962 O   0  0  0  0  0  0  0  0  0  0  0  0
    0.9716    0.9062    0.2458 C   0  0  0  0  0  0  0  0  0  0  0  0
    1.8948    0.4597   -0.8946 C   0  0  0  0  0  0  0  0  0  0  0  0
    3.2107   -0.0051   -0.3998 C   0  0  0  0  0  0  0  0  0  0  0  0
    3.4259   -1.3444   -0.0684 C   0  0  0  0  0  0  0  0  0  0  0  0
    4.6848   -1.7397    0.3951 C   0  0  0  0  0  0  0  0  0  0  0  0
    5.6910   -0.8057    0.5179 C   0  0  0  0  0  0  0  0  0  0  0  0
    5.5018    0.5253    0.1962 C   0  0  0  0  0  0  0  0  0  0  0  0
    4.2667    0.8970   -0.2554 C   0  0  0  0  0  0  0  0  0  0  0  0
    0.9111   -0.0972    1.2805 N   0  0  0  0  0  0  0  0  0  0  0  0
    0.1558   -1.3123    1.3535 C   0  0  0  0  0  0  0  0  0  0  0  0
    0.4687   -2.1924    2.1610 O   0  0  0  0  0  0  0  0  0  0  0  0
   -1.0025   -1.5992    0.5106 C   0  0  0  0  0  0  0  0  0  0  0  0
   -1.7755   -0.7004   -0.2326 C   0  0  0  0  0  0  0  0  0  0  0  0
   -2.8397   -1.1061   -1.0017 C   0  0  0  0  0  0  0  0  0  0  0  0
   -3.1689   -2.4137   -1.0544 C   0  0  0  0  0  0  0  0  0  0  0  0
   -2.4090   -3.3303   -0.3174 C   0  0  0  0  0  0  0  0  0  0  0  0
   -1.3379   -2.9357    0.4572 C   0  0  0  0  0  0  0  0  0  0  0  0
   -4.1306    3.6139   -0.1073 H   0  0  0  0  0  0  0  0  0  0  0  0
   -5.3080    2.3655    0.3860 H   0  0  0  0  0  0  0  0  0  0  0  0
   -4.6561    3.5337    1.6533 H   0  0  0  0  0  0  0  0  0  0  0  0
   -2.4765    2.5408    1.5445 H   0  0  0  0  0  0  0  0  0  0  0  0
   -3.5359    1.1111    1.5671 H   0  0  0  0  0  0  0  0  0  0  0  0
   -3.6394    1.0888   -0.7556 H   0  0  0  0  0  0  0  0  0  0  0  0
   -2.5191    2.5390   -0.9202 H   0  0  0  0  0  0  0  0  0  0  0  0
    1.4715    1.7936    0.6892 H   0  0  0  0  0  0  0  0  0  0  0  0
    2.1086    1.3314   -1.5428 H   0  0  0  0  0  0  0  0  0  0  0  0
    1.3797   -0.3712   -1.4105 H   0  0  0  0  0  0  0  0  0  0  0  0
    2.6239   -2.0847   -0.1671 H   0  0  0  0  0  0  0  0  0  0  0  0
    4.8545   -2.7944    0.6561 H   0  0  0  0  0  0  0  0  0  0  0  0
    6.6664   -1.1213    0.8789 H   0  0  0  0  0  0  0  0  0  0  0  0
    6.3058    1.2588    0.2968 H   0  0  0  0  0  0  0  0  0  0  0  0
    4.0527    1.9389   -0.5274 H   0  0  0  0  0  0  0  0  0  0  0  0
    1.5125    0.0528    2.1479 H   0  0  0  0  0  0  0  0  0  0  0  0
   -3.3989   -0.3907   -1.5717 H   0  0  0  0  0  0  0  0  0  0  0  0
   -4.0010   -2.7244   -1.6558 H   0  0  0  0  0  0  0  0  0  0  0  0
   -2.6429   -4.3858   -0.3349 H   0  0  0  0  0  0  0  0  0  0  0  0
   -0.7290   -3.6093    1.0379 H   0  0  0  0  0  0  0  0  0  0  0  0
  1  2  1  0
  2  3  1  0
  3  4  1  0
  4  5  1  0
  5  6  2  0
  5  7  1  0
  7  8  1  0
  8  9  1  0
  9 10  2  0
 10 11  1  0
 11 12  2  0
 12 13  1  0
 13 14  2  0
  7 15  1  0
 15 16  1  0
 16 17  2  0
 16 18  1  0
 18 19  2  0
 19 20  1  0
 20 21  2  0
 21 22  1  0
 22 23  2  0
 19  4  1  0
 14  9  1  0
 23 18  1  0
  1 24  1  0
  1 25  1  0
  1 26  1  0
  2 27  1  0
  2 28  1  0
  3 29  1  0
  3 30  1  0
  7 31  1  0
  8 32  1  0
  8 33  1  0
 10 34  1  0
 11 35  1  0
 12 36  1  0
 13 37  1  0
 14 38  1  0
 15 39  1  0
 20 40  1  0
 21 41  1  0
 22 42  1  0
 23 43  1  0
M  END
>  <Ligand ID>  (1) 
LIG0004347

>  <Ligand>  (1) 
CHEMBL269837

>  <SMILES>  (1) 
CCCN1C(=O)C(Cc2ccccc2)NC(=O)c2c1cccc2

>  <CID>  (1) 
44456958.0

>  <ChEMBL ID>  (1) 
nan

>  <InChiKey>  (1) 
SWJAFTBYNQPGLT-UHFFFAOYSA-N

>  <InChi>  (1) 
InChI=1S/C19H20N2O2/c1-2-12-21-17-11-7-6-10-15(17)18(22)20-16(19(21)23)13-14-8-4-3-5-9-14/h3-11,16H,2,12-13H2,1H3,(H,20,22)

>  <IUPAC Name>  (1) 
3-benzyl-1-propyl-3,4-dihydro-1,4-benzodiazepine-2,5-dione

$$$$
