
     RDKit          3D

 52 56  0  0  0  0  0  0  0  0999 V2000
   -0.4672   -1.7466   -0.8944 O   0  0  0  0  0  0  0  0  0  0  0  0
   -0.7123   -0.8042   -0.0829 C   0  0  0  0  0  0  0  0  0  0  0  0
   -2.0789   -0.4327    0.2390 C   0  0  0  0  0  0  0  0  0  0  0  0
   -2.9727    0.0893   -0.6752 C   0  0  0  0  0  0  0  0  0  0  0  0
   -4.2623    0.4240   -0.3343 C   0  0  0  0  0  0  0  0  0  0  0  0
   -4.7158    0.2511    0.9435 N   0  0  0  0  0  0  0  0  0  0  0  0
   -3.8660   -0.2538    1.8480 C   0  0  0  0  0  0  0  0  0  0  0  0
   -2.5555   -0.6052    1.5442 C   0  0  0  0  0  0  0  0  0  0  0  0
   -1.7365   -1.1190    2.5157 C   0  0  0  0  0  0  0  0  0  0  0  0
   -2.1800   -1.3026    3.8134 C   0  0  0  0  0  0  0  0  0  0  0  0
   -3.4705   -0.9631    4.1395 C   0  0  0  0  0  0  0  0  0  0  0  0
   -4.3197   -0.4378    3.1614 C   0  0  0  0  0  0  0  0  0  0  0  0
   -5.2269    0.9761   -1.2928 C   0  0  0  0  0  0  0  0  0  0  0  0
   -6.5091    1.2753   -0.8502 C   0  0  0  0  0  0  0  0  0  0  0  0
   -7.4547    1.8002   -1.7338 C   0  0  0  0  0  0  0  0  0  0  0  0
   -7.1045    2.0207   -3.0585 C   0  0  0  0  0  0  0  0  0  0  0  0
   -5.8275    1.7155   -3.4714 C   0  0  0  0  0  0  0  0  0  0  0  0
   -4.8772    1.1981   -2.6235 C   0  0  0  0  0  0  0  0  0  0  0  0
    0.4019   -0.1454    0.4847 N   0  0  0  0  0  0  0  0  0  0  0  0
    1.7176   -0.5570    0.1385 C   0  0  0  0  0  0  0  0  0  0  0  0
    2.2752   -1.5389    0.9669 C   0  0  0  0  0  0  0  0  0  0  0  0
    3.5497   -1.9861    0.6831 C   0  0  0  0  0  0  0  0  0  0  0  0
    4.2898   -1.4984   -0.3885 C   0  0  0  0  0  0  0  0  0  0  0  0
    3.7137   -0.5466   -1.1687 C   0  0  0  0  0  0  0  0  0  0  0  0
    2.4234   -0.0544   -0.9290 C   0  0  0  0  0  0  0  0  0  0  0  0
    5.8913   -2.1474   -0.6270 S   0  0  0  0  0  0  0  0  0  0  0  0
    5.9163   -3.5356   -0.0309 O   0  0  0  0  0  0  0  0  0  0  0  0
    6.2229   -2.3270   -2.0818 O   0  0  0  0  0  0  0  0  0  0  0  0
    7.0447   -1.1311    0.1337 N   0  0  0  0  0  0  0  0  0  0  0  0
    7.2341    0.2228   -0.2473 C   0  0  0  0  0  0  0  0  0  0  0  0
    6.8048    1.0833   -1.0596 N   0  0  0  0  0  0  0  0  0  0  0  0
    7.2230    2.2993   -1.1585 C   0  0  0  0  0  0  0  0  0  0  0  0
    8.2311    2.7201   -0.3093 C   0  0  0  0  0  0  0  0  0  0  0  0
    8.5588    1.2055    0.6834 S   0  0  0  0  0  0  0  0  0  0  0  0
   -2.6090    0.2242   -1.6756 H   0  0  0  0  0  0  0  0  0  0  0  0
   -0.7015   -1.3954    2.2713 H   0  0  0  0  0  0  0  0  0  0  0  0
   -1.5354   -1.7056    4.5739 H   0  0  0  0  0  0  0  0  0  0  0  0
   -3.8320   -1.1021    5.1660 H   0  0  0  0  0  0  0  0  0  0  0  0
   -5.3407   -0.1757    3.4395 H   0  0  0  0  0  0  0  0  0  0  0  0
   -6.8046    1.1099    0.1841 H   0  0  0  0  0  0  0  0  0  0  0  0
   -8.4575    2.0359   -1.3958 H   0  0  0  0  0  0  0  0  0  0  0  0
   -7.8367    2.4272   -3.7462 H   0  0  0  0  0  0  0  0  0  0  0  0
   -5.5175    1.8785   -4.5145 H   0  0  0  0  0  0  0  0  0  0  0  0
   -3.9077    0.9835   -3.0037 H   0  0  0  0  0  0  0  0  0  0  0  0
    0.2796    0.6400    1.1541 H   0  0  0  0  0  0  0  0  0  0  0  0
    1.7016   -1.9337    1.8186 H   0  0  0  0  0  0  0  0  0  0  0  0
    3.9998   -2.7581    1.3299 H   0  0  0  0  0  0  0  0  0  0  0  0
    4.2712   -0.1509   -2.0061 H   0  0  0  0  0  0  0  0  0  0  0  0
    1.9682    0.6988   -1.5456 H   0  0  0  0  0  0  0  0  0  0  0  0
    7.6183   -1.5652    0.9113 H   0  0  0  0  0  0  0  0  0  0  0  0
    6.8152    3.0279   -1.8909 H   0  0  0  0  0  0  0  0  0  0  0  0
    8.7281    3.6127   -0.1902 H   0  0  0  0  0  0  0  0  0  0  0  0
  1  2  2  0
  2  3  1  0
  3  4  2  0
  4  5  1  0
  5  6  2  0
  6  7  1  0
  7  8  2  0
  8  9  1  0
  9 10  2  0
 10 11  1  0
 11 12  2  0
  5 13  1  0
 13 14  2  0
 14 15  1  0
 15 16  2  0
 16 17  1  0
 17 18  2  0
  2 19  1  0
 19 20  1  0
 20 21  2  0
 21 22  1  0
 22 23  2  0
 23 24  1  0
 24 25  2  0
 23 26  1  0
 26 27  2  0
 26 28  2  0
 26 29  1  0
 29 30  1  0
 30 31  2  0
 31 32  1  0
 32 33  2  0
 33 34  1  0
  8  3  1  0
 18 13  1  0
 25 20  1  0
 34 30  1  0
 12  7  1  0
  4 35  1  0
  9 36  1  0
 10 37  1  0
 11 38  1  0
 12 39  1  0
 14 40  1  0
 15 41  1  0
 16 42  1  0
 17 43  1  0
 18 44  1  0
 19 45  1  0
 21 46  1  0
 22 47  1  0
 24 48  1  0
 25 49  1  0
 29 50  1  0
 32 51  1  0
 33 52  1  0
M  END
>  <Ligand ID>  (1) 
LIG0002666

>  <Ligand>  (1) 
2-phenyl-N-[4-(1,3-thiazol-2-ylsulfamoyl)phenyl]quinoline-4-carboxamide

>  <SMILES>  (1) 
O=C(c1cc(nc2c1cccc2)c1ccccc1)Nc1ccc(cc1)S(=O)(=O)Nc1nccs1

>  <CID>  (1) 
1582687.0

>  <ChEMBL ID>  (1) 
nan

>  <InChiKey>  (1) 
HMTRBVUBZDRDQO-UHFFFAOYSA-N

>  <InChi>  (1) 
InChI=1S/C25H18N4O3S2/c30-24(27-18-10-12-19(13-11-18)34(31,32)29-25-26-14-15-33-25)21-16-23(17-6-2-1-3-7-17)28-22-9-5-4-8-20(21)22/h1-16H,(H,26,29)(H,27,30)

>  <IUPAC Name>  (1) 
2-phenyl-N-[4-(1,3-thiazol-2-ylsulfamoyl)phenyl]quinoline-4-carboxamide

$$$$
