
     RDKit          3D

 47 51  0  0  0  0  0  0  0  0999 V2000
    2.6117    2.0690   -1.5963 C   0  0  0  0  0  0  0  0  0  0  0  0
    3.4001    0.9538   -0.9815 C   0  0  0  0  0  0  0  0  0  0  0  0
    4.7986    0.9887   -1.0460 C   0  0  0  0  0  0  0  0  0  0  0  0
    5.5336   -0.0670   -0.5081 C   0  0  0  0  0  0  0  0  0  0  0  0
    4.8964   -1.1563    0.0920 C   0  0  0  0  0  0  0  0  0  0  0  0
    3.5168   -1.1923    0.1565 C   0  0  0  0  0  0  0  0  0  0  0  0
    2.7809   -0.1248   -0.3854 C   0  0  0  0  0  0  0  0  0  0  0  0
    1.3831   -0.4380   -0.1496 N   0  0  0  0  0  0  0  0  0  0  0  0
    1.3492   -1.8785   -0.2526 C   0  0  0  0  0  0  0  0  0  0  0  0
    2.5278   -2.2053    0.6929 C   0  0  0  0  0  0  0  0  0  0  0  0
    0.4149    0.5270    0.1394 C   0  0  0  0  0  0  0  0  0  0  0  0
    0.6747    1.7661    0.3443 O   0  0  0  0  0  0  0  0  0  0  0  0
   -1.0573    0.2304    0.2438 C   0  0  0  0  0  0  0  0  0  0  0  0
   -1.7049    1.6254    0.4273 C   0  0  0  0  0  0  0  0  0  0  0  0
   -3.1923    1.4826    0.5928 C   0  0  0  0  0  0  0  0  0  0  0  0
   -3.4607    0.6621    1.8343 C   0  0  0  0  0  0  0  0  0  0  0  0
   -2.8418   -0.6802    1.6420 C   0  0  0  0  0  0  0  0  0  0  0  0
   -1.3453   -0.4824    1.5210 C   0  0  0  0  0  0  0  0  0  0  0  0
   -3.3336   -1.3720    0.4108 C   0  0  0  0  0  0  0  0  0  0  0  0
   -3.1121   -0.5210   -0.7987 C   0  0  0  0  0  0  0  0  0  0  0  0
   -1.6212   -0.3483   -0.9927 C   0  0  0  0  0  0  0  0  0  0  0  0
   -3.7927    0.8190   -0.6224 C   0  0  0  0  0  0  0  0  0  0  0  0
    1.6749    1.7067   -2.0588 H   0  0  0  0  0  0  0  0  0  0  0  0
    2.5720    2.9797   -1.0133 H   0  0  0  0  0  0  0  0  0  0  0  0
    3.2267    2.3578   -2.5206 H   0  0  0  0  0  0  0  0  0  0  0  0
    5.3151    1.7998   -1.4947 H   0  0  0  0  0  0  0  0  0  0  0  0
    6.6320   -0.0676   -0.5434 H   0  0  0  0  0  0  0  0  0  0  0  0
    5.4677   -1.9858    0.5142 H   0  0  0  0  0  0  0  0  0  0  0  0
    1.7206   -2.1530   -1.2792 H   0  0  0  0  0  0  0  0  0  0  0  0
    0.4481   -2.3819    0.0288 H   0  0  0  0  0  0  0  0  0  0  0  0
    2.9178   -3.2096    0.5340 H   0  0  0  0  0  0  0  0  0  0  0  0
    2.2655   -1.9626    1.7402 H   0  0  0  0  0  0  0  0  0  0  0  0
   -1.4751    2.2984   -0.3988 H   0  0  0  0  0  0  0  0  0  0  0  0
   -1.2831    1.9990    1.3920 H   0  0  0  0  0  0  0  0  0  0  0  0
   -3.6136    2.4716    0.7682 H   0  0  0  0  0  0  0  0  0  0  0  0
   -4.5465    0.5942    2.0580 H   0  0  0  0  0  0  0  0  0  0  0  0
   -2.9527    1.1784    2.6798 H   0  0  0  0  0  0  0  0  0  0  0  0
   -2.9863   -1.3457    2.5375 H   0  0  0  0  0  0  0  0  0  0  0  0
   -0.9719    0.2020    2.3405 H   0  0  0  0  0  0  0  0  0  0  0  0
   -0.8719   -1.4332    1.6969 H   0  0  0  0  0  0  0  0  0  0  0  0
   -2.7566   -2.3187    0.2848 H   0  0  0  0  0  0  0  0  0  0  0  0
   -4.4123   -1.6174    0.4532 H   0  0  0  0  0  0  0  0  0  0  0  0
   -3.5638   -0.9868   -1.7029 H   0  0  0  0  0  0  0  0  0  0  0  0
   -1.5080    0.4201   -1.7978 H   0  0  0  0  0  0  0  0  0  0  0  0
   -1.2193   -1.3179   -1.2773 H   0  0  0  0  0  0  0  0  0  0  0  0
   -4.8683    0.6449   -0.4872 H   0  0  0  0  0  0  0  0  0  0  0  0
   -3.6368    1.4697   -1.5023 H   0  0  0  0  0  0  0  0  0  0  0  0
  1  2  1  0
  2  3  2  0
  3  4  1  0
  4  5  2  0
  5  6  1  0
  6  7  2  0
  7  8  1  0
  8  9  1  0
  9 10  1  0
  8 11  1  0
 11 12  2  0
 11 13  1  0
 13 14  1  0
 14 15  1  0
 15 16  1  0
 16 17  1  0
 17 18  1  0
 17 19  1  0
 19 20  1  0
 20 21  1  0
 20 22  1  0
  7  2  1  0
 21 13  1  0
 10  6  1  0
 18 13  1  0
 22 15  1  0
  1 23  1  0
  1 24  1  0
  1 25  1  0
  3 26  1  0
  4 27  1  0
  5 28  1  0
  9 29  1  0
  9 30  1  0
 10 31  1  0
 10 32  1  0
 14 33  1  0
 14 34  1  0
 15 35  1  0
 16 36  1  0
 16 37  1  0
 17 38  1  0
 18 39  1  0
 18 40  1  0
 19 41  1  0
 19 42  1  0
 20 43  1  0
 21 44  1  0
 21 45  1  0
 22 46  1  0
 22 47  1  0
M  END
>  <Ligand ID>  (1) 
LIG0001731

>  <Ligand>  (1) 
CHEMBL2338185

>  <SMILES>  (1) 
Cc1cccc2c1N(CC2)C(=O)C12CC3CC(C2)CC(C1)C3

>  <CID>  (1) 
71559638.0

>  <ChEMBL ID>  (1) 
nan

>  <InChiKey>  (1) 
POGKSHDEBWTDPB-UHFFFAOYSA-N

>  <InChi>  (1) 
InChI=1S/C20H25NO/c1-13-3-2-4-17-5-6-21(18(13)17)19(22)20-10-14-7-15(11-20)9-16(8-14)12-20/h2-4,14-16H,5-12H2,1H3

>  <IUPAC Name>  (1) 
1-adamantyl-(7-methyl-2,3-dihydroindol-1-yl)methanone

$$$$
