
     RDKit          3D

 84 87  0  0  0  0  0  0  0  0999 V2000
  -12.9823    1.9713    0.2085 C   0  0  0  0  0  0  0  0  0  0  0  0
  -12.5694    0.6130   -0.2874 C   0  0  0  0  0  0  0  0  0  0  0  0
  -12.6642    0.3679   -1.4993 O   0  0  0  0  0  0  0  0  0  0  0  0
  -12.0957   -0.2930    0.6968 N   0  0  0  0  0  0  0  0  0  0  0  0
  -11.6797   -1.6176    0.3017 C   0  0  0  0  0  0  0  0  0  0  0  0
  -10.5399   -1.6028   -0.6916 C   0  0  0  0  0  0  0  0  0  0  0  0
   -9.3703   -0.9549   -0.1705 N   0  0  0  0  0  0  0  0  0  0  0  0
   -8.3863   -1.5385    0.4978 N   0  0  0  0  0  0  0  0  0  0  0  0
   -7.4596   -0.6469    0.8333 N   0  0  0  0  0  0  0  0  0  0  0  0
   -7.8462    0.5563    0.3722 C   0  0  0  0  0  0  0  0  0  0  0  0
   -9.0492    0.3668   -0.2607 C   0  0  0  0  0  0  0  0  0  0  0  0
   -7.0920    1.8274    0.5338 C   0  0  0  0  0  0  0  0  0  0  0  0
   -6.1658    1.9695   -0.6561 C   0  0  0  0  0  0  0  0  0  0  0  0
   -5.3006    0.8977   -0.6882 O   0  0  0  0  0  0  0  0  0  0  0  0
   -4.2446    1.0184   -2.0108 P   0  0  0  0  0  0  0  0  0  0  0  0
   -4.9509    1.5907   -3.2208 O   0  0  0  0  0  0  0  0  0  0  0  0
   -2.9335    2.0049   -1.5751 O   0  0  0  0  0  0  0  0  0  0  0  0
   -1.8531    1.0882   -0.6496 P   0  0  0  0  0  0  0  0  0  0  0  0
   -0.7739    2.0456   -0.1475 O   0  0  0  0  0  0  0  0  0  0  0  0
   -1.2017   -0.1282   -1.5954 O   0  0  0  0  0  0  0  0  0  0  0  0
   -0.7505   -1.4763   -0.7095 P   0  0  0  0  0  0  0  0  0  0  0  0
   -1.7542   -1.8078    0.3591 O   0  0  0  0  0  0  0  0  0  0  0  0
    0.7294   -1.1420    0.0490 O   0  0  0  0  0  0  0  0  0  0  0  0
    0.9150   -1.8935    1.1837 C   0  0  0  0  0  0  0  0  0  0  0  0
    2.2225   -1.6358    1.8970 C   0  0  1  0  0  0  0  0  0  0  0  0
    3.3171   -1.9015    1.1047 O   0  0  0  0  0  0  0  0  0  0  0  0
    4.3350   -1.1413    1.6823 C   0  0  2  0  0  0  0  0  0  0  0  0
    3.6585    0.2104    1.7600 C   0  0  1  0  0  0  0  0  0  0  0  0
    2.2799   -0.1956    2.2939 C   0  0  2  0  0  0  0  0  0  0  0  0
    2.3938   -0.1301    3.6928 O   0  0  0  0  0  0  0  0  0  0  0  0
    4.3072    1.0922    2.6182 O   0  0  0  0  0  0  0  0  0  0  0  0
    5.5595   -1.1462    0.9492 N   0  0  0  0  0  0  0  0  0  0  0  0
    6.7244   -1.5376    1.5448 C   0  0  0  0  0  0  0  0  0  0  0  0
    7.9229   -1.5534    0.8620 C   0  0  0  0  0  0  0  0  0  0  0  0
    7.9820   -1.1688   -0.4624 C   0  0  0  0  0  0  0  0  0  0  0  0
    6.8162   -0.7862   -1.0278 N   0  0  0  0  0  0  0  0  0  0  0  0
    5.6502   -0.7774   -0.3415 C   0  0  0  0  0  0  0  0  0  0  0  0
    4.6244   -0.4033   -0.9649 O   0  0  0  0  0  0  0  0  0  0  0  0
    9.2100   -1.1790   -1.1830 N   0  0  0  0  0  0  0  0  0  0  0  0
   10.3225   -1.5673   -0.5675 O   0  0  0  0  0  0  0  0  0  0  0  0
   11.0172   -0.5964    0.1076 C   0  0  0  0  0  0  0  0  0  0  0  0
   11.4842    0.5306   -0.7485 C   0  0  0  0  0  0  0  0  0  0  0  0
   12.7427    0.4363   -1.3488 C   0  0  0  0  0  0  0  0  0  0  0  0
   13.2371    1.4486   -2.1566 C   0  0  0  0  0  0  0  0  0  0  0  0
   12.4318    2.5568   -2.3436 C   0  0  0  0  0  0  0  0  0  0  0  0
   11.2023    2.6702   -1.7686 C   0  0  0  0  0  0  0  0  0  0  0  0
   10.7030    1.6599   -0.9593 C   0  0  0  0  0  0  0  0  0  0  0  0
   -0.5178   -2.8074   -1.7340 O   0  0  0  0  0  0  0  0  0  0  0  0
   -2.6749    0.4955    0.7056 O   0  0  0  0  0  0  0  0  0  0  0  0
   -3.6465   -0.4904   -2.4073 O   0  0  0  0  0  0  0  0  0  0  0  0
  -12.3069    2.2715    1.0155 H   0  0  0  0  0  0  0  0  0  0  0  0
  -13.0363    2.6988   -0.6197 H   0  0  0  0  0  0  0  0  0  0  0  0
  -14.0060    1.8387    0.6133 H   0  0  0  0  0  0  0  0  0  0  0  0
  -12.0398   -0.0272    1.7010 H   0  0  0  0  0  0  0  0  0  0  0  0
  -12.5430   -2.0807   -0.2606 H   0  0  0  0  0  0  0  0  0  0  0  0
  -11.4954   -2.2861    1.1447 H   0  0  0  0  0  0  0  0  0  0  0  0
  -10.8557   -1.1092   -1.6226 H   0  0  0  0  0  0  0  0  0  0  0  0
  -10.3292   -2.6822   -0.9186 H   0  0  0  0  0  0  0  0  0  0  0  0
   -9.6395    1.1473   -0.7496 H   0  0  0  0  0  0  0  0  0  0  0  0
   -7.7951    2.6841    0.5864 H   0  0  0  0  0  0  0  0  0  0  0  0
   -6.5143    1.7398    1.4888 H   0  0  0  0  0  0  0  0  0  0  0  0
   -5.6252    2.9366   -0.6217 H   0  0  0  0  0  0  0  0  0  0  0  0
   -6.8040    1.9071   -1.5687 H   0  0  0  0  0  0  0  0  0  0  0  0
    0.9852   -2.9644    0.8338 H   0  0  0  0  0  0  0  0  0  0  0  0
    0.0473   -1.7966    1.8557 H   0  0  0  0  0  0  0  0  0  0  0  0
    2.2311   -2.3142    2.7757 H   0  0  0  0  0  0  0  0  0  0  0  0
    4.5242   -1.4758    2.7170 H   0  0  0  0  0  0  0  0  0  0  0  0
    3.4648    0.6471    0.7689 H   0  0  0  0  0  0  0  0  0  0  0  0
    1.4803    0.4290    1.8982 H   0  0  0  0  0  0  0  0  0  0  0  0
    2.9909    0.6265    3.9483 H   0  0  0  0  0  0  0  0  0  0  0  0
    4.6245    1.8526    2.0467 H   0  0  0  0  0  0  0  0  0  0  0  0
    6.7127   -1.8473    2.5892 H   0  0  0  0  0  0  0  0  0  0  0  0
    8.8094   -1.8760    1.3971 H   0  0  0  0  0  0  0  0  0  0  0  0
    9.1809   -0.8744   -2.1852 H   0  0  0  0  0  0  0  0  0  0  0  0
   10.5127   -0.2262    1.0313 H   0  0  0  0  0  0  0  0  0  0  0  0
   11.9371   -1.1158    0.5087 H   0  0  0  0  0  0  0  0  0  0  0  0
   13.3606   -0.4588   -1.1810 H   0  0  0  0  0  0  0  0  0  0  0  0
   14.2108    1.3491   -2.6067 H   0  0  0  0  0  0  0  0  0  0  0  0
   12.8275    3.3414   -2.9763 H   0  0  0  0  0  0  0  0  0  0  0  0
   10.6237    3.5777   -1.9637 H   0  0  0  0  0  0  0  0  0  0  0  0
    9.7202    1.7479   -0.4984 H   0  0  0  0  0  0  0  0  0  0  0  0
   -1.3556   -3.0276   -2.1978 H   0  0  0  0  0  0  0  0  0  0  0  0
   -2.8956    1.2647    1.2796 H   0  0  0  0  0  0  0  0  0  0  0  0
   -4.2884   -1.1964   -2.1983 H   0  0  0  0  0  0  0  0  0  0  0  0
  1  2  1  0
  2  3  2  0
  2  4  1  0
  4  5  1  0
  5  6  1  0
  6  7  1  0
  7  8  1  0
  8  9  2  0
  9 10  1  0
 10 11  2  0
 10 12  1  0
 12 13  1  0
 13 14  1  0
 14 15  1  0
 15 16  2  0
 15 17  1  0
 17 18  1  0
 18 19  2  0
 18 20  1  0
 20 21  1  0
 21 22  2  0
 21 23  1  0
 23 24  1  0
 24 25  1  0
 25 26  1  0
 26 27  1  0
 27 28  1  0
 28 29  1  0
 29 30  1  0
 28 31  1  0
 27 32  1  0
 32 33  1  0
 33 34  2  0
 34 35  1  0
 35 36  2  0
 36 37  1  0
 37 38  2  0
 35 39  1  0
 39 40  1  0
 40 41  1  0
 41 42  1  0
 42 43  2  0
 43 44  1  0
 44 45  2  0
 45 46  1  0
 46 47  2  0
 21 48  1  0
 18 49  1  0
 15 50  1  0
 11  7  1  0
 29 25  1  0
 37 32  1  0
 47 42  1  0
  1 51  1  0
  1 52  1  0
  1 53  1  0
  4 54  1  0
  5 55  1  0
  5 56  1  0
  6 57  1  0
  6 58  1  0
 11 59  1  0
 12 60  1  0
 12 61  1  0
 13 62  1  0
 13 63  1  0
 24 64  1  0
 24 65  1  0
 25 66  1  1
 27 67  1  1
 28 68  1  6
 29 69  1  6
 30 70  1  0
 31 71  1  0
 33 72  1  0
 34 73  1  0
 39 74  1  0
 41 75  1  0
 41 76  1  0
 43 77  1  0
 44 78  1  0
 45 79  1  0
 46 80  1  0
 47 81  1  0
 48 82  1  0
 49 83  1  0
 50 84  1  0
M  END
>  <Ligand ID>  (1) 
LIG0003332

>  <Ligand>  (1) 
CHEMBL3220058

>  <SMILES>  (1) 
CC(=O)NCCn1nnc(c1)CCOP(=O)(OP(=O)(OP(=O)(OC[C@H]1O[C@H]([C@@H]([C@@H]1O)O)n1ccc(nc1=O)NOCc1ccccc1)O)O)O

>  <CID>  (1) 
90666802.0

>  <ChEMBL ID>  (1) 
nan

>  <InChiKey>  (1) 
RYWQVZLIGJOUIY-JMJGKCIBSA-N

>  <InChi>  (1) 
InChI=1S/C24H34N7O16P3/c1-16(32)25-9-11-30-13-18(27-29-30)8-12-43-48(36,37)46-50(40,41)47-49(38,39)44-15-19-21(33)22(34)23(45-19)31-10-7-20(26-24(31)35)28-42-14-17-5-3-2-4-6-17/h2-7,10,13,19,21-23,33-34H,8-9,11-12,14-15H2,1H3,(H,25,32)(H,36,37)(H,38,39)(H,40,41)(H,26,28,35)/t19-,21-,22-,23-/m1/s1

>  <IUPAC Name>  (1) 
[2-[1-(2-acetamidoethyl)triazol-4-yl]ethoxy-hydroxyphosphoryl] [[(2R,3S,4R,5R)-3,4-dihydroxy-5-[2-oxo-4-(phenylmethoxyamino)pyrimidin-1-yl]oxolan-2-yl]methoxy-hydroxyphosphoryl] hydrogen phosphate

$$$$
