
     RDKit          3D

 65 67  0  0  0  0  0  0  0  0999 V2000
   12.0528    0.4995    0.4586 O   0  0  0  0  0  0  0  0  0  0  0  0
   10.6912    0.4813    0.2309 C   0  0  0  0  0  0  0  0  0  0  0  0
   10.1790   -0.6021   -0.1321 O   0  0  0  0  0  0  0  0  0  0  0  0
    9.9304    1.7387    0.4306 C   0  0  0  0  0  0  0  0  0  0  0  0
    8.5120    1.5748    0.1548 N   0  0  0  0  0  0  0  0  0  0  0  0
    7.8103    0.6240    0.9303 C   0  0  0  0  0  0  0  0  0  0  0  0
    8.4626   -0.0100    1.7983 O   0  0  0  0  0  0  0  0  0  0  0  0
    6.3899    0.3391    0.7839 C   0  0  0  0  0  0  0  0  0  0  0  0
    5.8518   -0.6415    1.5892 C   0  0  0  0  0  0  0  0  0  0  0  0
    4.5039   -0.9352    1.4805 C   0  0  0  0  0  0  0  0  0  0  0  0
    3.6546   -0.3043    0.6094 C   0  0  0  0  0  0  0  0  0  0  0  0
    4.2320    0.6854   -0.1937 C   0  0  0  0  0  0  0  0  0  0  0  0
    5.5729    1.0013   -0.1085 C   0  0  0  0  0  0  0  0  0  0  0  0
    2.2817   -0.5793    0.4758 N   0  0  0  0  0  0  0  0  0  0  0  0
    1.5598   -1.5894    1.2179 C   0  0  0  0  0  0  0  0  0  0  0  0
    0.3112   -0.9044    1.7337 C   0  0  0  0  0  0  0  0  0  0  0  0
   -0.6647   -0.5457    0.6334 C   0  0  0  0  0  0  0  0  0  0  0  0
    0.1394   -0.4676   -0.6646 C   0  0  0  0  0  0  0  0  0  0  0  0
    1.4795    0.1975   -0.4811 C   0  0  0  0  0  0  0  0  0  0  0  0
   -1.6738   -1.5343    0.5791 N   0  0  0  0  0  0  0  0  0  0  0  0
   -2.7359   -1.3790   -0.3518 C   0  0  0  0  0  0  0  0  0  0  0  0
   -3.6743   -0.2464   -0.0548 C   0  0  1  0  0  0  0  0  0  0  0  0
   -4.8018   -0.3039   -1.0214 C   0  0  0  0  0  0  0  0  0  0  0  0
   -4.7681   -0.9997   -2.2056 C   0  0  0  0  0  0  0  0  0  0  0  0
   -5.8801   -0.9849   -3.0192 C   0  0  0  0  0  0  0  0  0  0  0  0
   -7.0116   -0.2779   -2.6452 C   0  0  0  0  0  0  0  0  0  0  0  0
   -7.0753    0.4318   -1.4588 C   0  0  0  0  0  0  0  0  0  0  0  0
   -5.9475    0.3985   -0.6652 C   0  0  0  0  0  0  0  0  0  0  0  0
   -8.2382    1.1609   -1.0648 N   0  0  0  0  0  0  0  0  0  0  0  0
   -8.3383    1.9935    0.4504 S   0  0  0  0  0  0  0  0  0  0  0  0
   -9.6434    2.7041    0.5141 O   0  0  0  0  0  0  0  0  0  0  0  0
   -7.1726    2.9487    0.5107 O   0  0  0  0  0  0  0  0  0  0  0  0
   -8.1795    0.8109    1.7785 C   0  0  0  0  0  0  0  0  0  0  0  0
   -8.1379   -0.2559   -3.4578 O   0  0  0  0  0  0  0  0  0  0  0  0
   -4.2635   -0.4281    1.2248 O   0  0  0  0  0  0  0  0  0  0  0  0
   12.5544   -0.2900    0.8678 H   0  0  0  0  0  0  0  0  0  0  0  0
   10.0252    2.0509    1.4903 H   0  0  0  0  0  0  0  0  0  0  0  0
   10.2911    2.5470   -0.2556 H   0  0  0  0  0  0  0  0  0  0  0  0
    8.0060    2.1152   -0.5739 H   0  0  0  0  0  0  0  0  0  0  0  0
    6.4644   -1.1967    2.3161 H   0  0  0  0  0  0  0  0  0  0  0  0
    4.1309   -1.7100    2.1311 H   0  0  0  0  0  0  0  0  0  0  0  0
    3.6447    1.2425   -0.9152 H   0  0  0  0  0  0  0  0  0  0  0  0
    5.9955    1.7783   -0.7480 H   0  0  0  0  0  0  0  0  0  0  0  0
    1.2483   -2.4509    0.5912 H   0  0  0  0  0  0  0  0  0  0  0  0
    2.1345   -1.8782    2.0946 H   0  0  0  0  0  0  0  0  0  0  0  0
    0.6226   -0.0204    2.3378 H   0  0  0  0  0  0  0  0  0  0  0  0
   -0.1881   -1.5896    2.4277 H   0  0  0  0  0  0  0  0  0  0  0  0
   -1.0416    0.4771    0.8968 H   0  0  0  0  0  0  0  0  0  0  0  0
    0.2336   -1.4576   -1.1422 H   0  0  0  0  0  0  0  0  0  0  0  0
   -0.4018    0.1612   -1.4201 H   0  0  0  0  0  0  0  0  0  0  0  0
    1.9655    0.1881   -1.4807 H   0  0  0  0  0  0  0  0  0  0  0  0
    1.3396    1.2343   -0.1784 H   0  0  0  0  0  0  0  0  0  0  0  0
   -1.4404   -2.4731    0.8949 H   0  0  0  0  0  0  0  0  0  0  0  0
   -2.2782   -1.2597   -1.3541 H   0  0  0  0  0  0  0  0  0  0  0  0
   -3.3304   -2.3101   -0.3769 H   0  0  0  0  0  0  0  0  0  0  0  0
   -3.2555    0.7519   -0.0752 H   0  0  0  0  0  0  0  0  0  0  0  0
   -3.9007   -1.5453   -2.4998 H   0  0  0  0  0  0  0  0  0  0  0  0
   -5.9013   -1.5188   -3.9649 H   0  0  0  0  0  0  0  0  0  0  0  0
   -5.9894    0.9496    0.2589 H   0  0  0  0  0  0  0  0  0  0  0  0
   -9.0432    1.1647   -1.7555 H   0  0  0  0  0  0  0  0  0  0  0  0
   -9.1867    0.5735    2.2000 H   0  0  0  0  0  0  0  0  0  0  0  0
   -7.7992   -0.1644    1.3649 H   0  0  0  0  0  0  0  0  0  0  0  0
   -7.4893    1.1890    2.5453 H   0  0  0  0  0  0  0  0  0  0  0  0
   -7.9801    0.0601   -4.4176 H   0  0  0  0  0  0  0  0  0  0  0  0
   -4.8390   -1.2187    1.2238 H   0  0  0  0  0  0  0  0  0  0  0  0
  1  2  1  0
  2  3  2  0
  2  4  1  0
  4  5  1  0
  5  6  1  0
  6  7  2  0
  6  8  1  0
  8  9  2  0
  9 10  1  0
 10 11  2  0
 11 12  1  0
 12 13  2  0
 11 14  1  0
 14 15  1  0
 15 16  1  0
 16 17  1  0
 17 18  1  0
 18 19  1  0
 17 20  1  0
 20 21  1  0
 21 22  1  0
 22 23  1  0
 23 24  2  0
 24 25  1  0
 25 26  2  0
 26 27  1  0
 27 28  2  0
 27 29  1  0
 29 30  1  0
 30 31  2  0
 30 32  2  0
 30 33  1  0
 26 34  1  0
 22 35  1  0
 13  8  1  0
 19 14  1  0
 28 23  1  0
  1 36  1  0
  4 37  1  0
  4 38  1  0
  5 39  1  0
  9 40  1  0
 10 41  1  0
 12 42  1  0
 13 43  1  0
 15 44  1  0
 15 45  1  0
 16 46  1  0
 16 47  1  0
 17 48  1  0
 18 49  1  0
 18 50  1  0
 19 51  1  0
 19 52  1  0
 20 53  1  0
 21 54  1  0
 21 55  1  0
 22 56  1  1
 24 57  1  0
 25 58  1  0
 28 59  1  0
 29 60  1  0
 33 61  1  0
 33 62  1  0
 33 63  1  0
 34 64  1  0
 35 65  1  0
M  END
>  <Ligand ID>  (1) 
LIG0004935

>  <Ligand>  (1) 
CHEMBL36568

>  <SMILES>  (1) 
OC(=O)CNC(=O)c1ccc(cc1)N1CCC(CC1)NC[C@@H](c1ccc(c(c1)NS(=O)(=O)C)O)O

>  <CID>  (1) 
10553602.0

>  <ChEMBL ID>  (1) 
nan

>  <InChiKey>  (1) 
LSFBOYIJGPJWMG-NRFANRHFSA-N

>  <InChi>  (1) 
InChI=1S/C23H30N4O7S/c1-35(33,34)26-19-12-16(4-7-20(19)28)21(29)13-24-17-8-10-27(11-9-17)18-5-2-15(3-6-18)23(32)25-14-22(30)31/h2-7,12,17,21,24,26,28-29H,8-11,13-14H2,1H3,(H,25,32)(H,30,31)/t21-/m0/s1

>  <IUPAC Name>  (1) 
2-[[4-[4-[[(2R)-2-hydroxy-2-[4-hydroxy-3-(methanesulfonamido)phenyl]ethyl]amino]piperidin-1-yl]benzoyl]amino]acetic acid

$$$$
