
     RDKit          3D

 46 47  0  0  0  0  0  0  0  0999 V2000
    4.9010    1.6130   -0.0319 C   0  0  0  0  0  0  0  0  0  0  0  0
    4.1185    1.2860   -1.0723 C   0  0  0  0  0  0  0  0  0  0  0  0
    2.6462    1.3606   -0.9576 C   0  0  0  0  0  0  0  0  0  0  0  0
    2.1198    0.0245   -1.1985 N   0  0  0  0  0  0  0  0  0  0  0  0
    2.5101   -0.8111   -0.1106 C   0  0  0  0  0  0  0  0  0  0  0  0
    1.8487   -2.1559   -0.0676 C   0  0  0  0  0  0  0  0  0  0  0  0
    0.4683   -2.0380    0.5060 C   0  0  0  0  0  0  0  0  0  0  0  0
   -0.3817   -0.9371    0.4946 C   0  0  0  0  0  0  0  0  0  0  0  0
   -0.0545    0.3739   -0.1149 C   0  0  0  0  0  0  0  0  0  0  0  0
    0.6963    0.1319   -1.3869 C   0  0  0  0  0  0  0  0  0  0  0  0
   -1.2749    1.1957   -0.3392 C   0  0  0  0  0  0  0  0  0  0  0  0
   -2.0839    1.0582   -1.4464 C   0  0  0  0  0  0  0  0  0  0  0  0
   -3.2102    1.8066   -1.6779 C   0  0  0  0  0  0  0  0  0  0  0  0
   -3.5557    2.7686   -0.7282 C   0  0  0  0  0  0  0  0  0  0  0  0
   -2.7746    2.9531    0.4127 C   0  0  0  0  0  0  0  0  0  0  0  0
   -1.6612    2.1737    0.5867 C   0  0  0  0  0  0  0  0  0  0  0  0
   -4.6964    3.5296   -0.9577 O   0  0  0  0  0  0  0  0  0  0  0  0
   -1.6186   -1.0187    1.0754 C   0  0  0  0  0  0  0  0  0  0  0  0
   -1.9769   -2.2088    1.6569 C   0  0  0  0  0  0  0  0  0  0  0  0
   -1.1384   -3.3121    1.6737 C   0  0  0  0  0  0  0  0  0  0  0  0
    0.1247   -3.2293    1.0813 C   0  0  0  0  0  0  0  0  0  0  0  0
   -1.5339   -4.5058    2.2726 O   0  0  0  0  0  0  0  0  0  0  0  0
   -3.2135   -2.3680    2.2660 O   0  0  0  0  0  0  0  0  0  0  0  0
    0.7691    0.0000    0.0000 Br  0  0  0  0  0  0  0  0  0  0  0  0
    4.4315    1.9295    0.8850 H   0  0  0  0  0  0  0  0  0  0  0  0
    5.9817    1.5641   -0.0964 H   0  0  0  0  0  0  0  0  0  0  0  0
    4.5296    0.9606   -2.0211 H   0  0  0  0  0  0  0  0  0  0  0  0
    2.1919    2.1155   -1.5995 H   0  0  0  0  0  0  0  0  0  0  0  0
    2.3848    1.6268    0.0952 H   0  0  0  0  0  0  0  0  0  0  0  0
    3.5989   -0.9990   -0.2137 H   0  0  0  0  0  0  0  0  0  0  0  0
    2.3647   -0.3481    0.8891 H   0  0  0  0  0  0  0  0  0  0  0  0
    2.4202   -2.7583    0.6795 H   0  0  0  0  0  0  0  0  0  0  0  0
    1.8642   -2.7232   -0.9931 H   0  0  0  0  0  0  0  0  0  0  0  0
    0.5514    0.9439    0.6340 H   0  0  0  0  0  0  0  0  0  0  0  0
    0.3044   -0.7571   -1.9028 H   0  0  0  0  0  0  0  0  0  0  0  0
    0.4997    0.9868   -2.0766 H   0  0  0  0  0  0  0  0  0  0  0  0
   -1.8075    0.2996   -2.1921 H   0  0  0  0  0  0  0  0  0  0  0  0
   -3.8053    1.6538   -2.5660 H   0  0  0  0  0  0  0  0  0  0  0  0
   -3.0377    3.7003    1.1566 H   0  0  0  0  0  0  0  0  0  0  0  0
   -1.0797    2.3453    1.4852 H   0  0  0  0  0  0  0  0  0  0  0  0
   -5.1934    3.8996   -0.1685 H   0  0  0  0  0  0  0  0  0  0  0  0
   -2.2834   -0.1469    1.0631 H   0  0  0  0  0  0  0  0  0  0  0  0
    0.8053   -4.0539    1.0708 H   0  0  0  0  0  0  0  0  0  0  0  0
   -0.9493   -5.3223    2.1849 H   0  0  0  0  0  0  0  0  0  0  0  0
   -4.0311   -2.6076    1.7502 H   0  0  0  0  0  0  0  0  0  0  0  0
   -0.7691    0.0000    0.0000 H   0  0  0  0  0  0  0  0  0  0  0  0
  1  2  2  0
  2  3  1  0
  3  4  1  0
  4  5  1  0
  5  6  1  0
  6  7  1  0
  7  8  2  0
  8  9  1  0
  9 10  1  0
  9 11  1  0
 11 12  2  0
 12 13  1  0
 13 14  2  0
 14 15  1  0
 15 16  2  0
 14 17  1  0
  8 18  1  0
 18 19  2  0
 19 20  1  0
 20 21  2  0
 20 22  1  0
 19 23  1  0
 10  4  1  0
 16 11  1  0
 21  7  1  0
  1 25  1  0
  1 26  1  0
  2 27  1  0
  3 28  1  0
  3 29  1  0
  5 30  1  0
  5 31  1  0
  6 32  1  0
  6 33  1  0
  9 34  1  0
 10 35  1  0
 10 36  1  0
 12 37  1  0
 13 38  1  0
 15 39  1  0
 16 40  1  0
 17 41  1  0
 18 42  1  0
 21 43  1  0
 22 44  1  0
 23 45  1  0
 24 46  1  0
M  END
>  <Ligand ID>  (1) 
LIG0005637

>  <Ligand>  (1) 
CHEMBL540575

>  <SMILES>  (1) 
C=CCN1CCc2c(C(C1)c1ccc(cc1)O)cc(c(c2)O)O.Br

>  <CID>  (1) 
13720691.0

>  <ChEMBL ID>  (1) 
nan

>  <InChiKey>  (1) 
UMDIZYDHRFEWTQ-UHFFFAOYSA-N

>  <InChi>  (1) 
InChI=1S/C19H21NO3.BrH/c1-2-8-20-9-7-14-10-18(22)19(23)11-16(14)17(12-20)13-3-5-15(21)6-4-13;/h2-6,10-11,17,21-23H,1,7-9,12H2;1H

>  <IUPAC Name>  (1) 
5-(4-hydroxyphenyl)-3-prop-2-enyl-1,2,4,5-tetrahydro-3-benzazepine-7,8-diol;hydrobromide

$$$$
