
     RDKit          3D

 57 60  0  0  0  0  0  0  0  0999 V2000
   -1.8554    3.2955    1.4880 O   0  0  0  0  0  0  0  0  0  0  0  0
   -1.2863    2.9091    0.2823 C   0  0  2  0  0  0  0  0  0  0  0  0
   -2.3106    2.4330   -0.6985 C   0  0  0  0  0  0  0  0  0  0  0  0
   -2.0049    0.9674   -0.8966 C   0  0  1  0  0  0  0  0  0  0  0  0
   -1.0832    0.5591    0.1996 C   0  0  1  0  0  0  0  0  0  0  0  0
   -0.2706    1.8087    0.4430 C   0  0  1  0  0  0  0  0  0  0  0  0
    0.7550    1.9489   -0.6302 C   0  0  0  0  0  0  0  0  0  0  0  0
    2.0410    2.1386   -0.3035 C   0  0  0  0  0  0  0  0  0  0  0  0
    3.0143    2.2710   -1.4050 C   0  0  0  0  0  0  0  0  0  0  0  0
    4.0963    1.1881   -1.3629 C   0  0  0  0  0  0  0  0  0  0  0  0
    4.8303    1.3114   -0.0656 C   0  0  0  0  0  0  0  0  0  0  0  0
    5.8514    0.4152    0.1530 O   0  0  0  0  0  0  0  0  0  0  0  0
    5.8932   -0.9312    0.2589 C   0  0  0  0  0  0  0  0  0  0  0  0
    7.1490   -1.5150    0.4733 C   0  0  0  0  0  0  0  0  0  0  0  0
    7.3186   -2.8691    0.5985 C   0  0  0  0  0  0  0  0  0  0  0  0
    6.2449   -3.7222    0.5171 C   0  0  0  0  0  0  0  0  0  0  0  0
    4.9991   -3.1819    0.3076 C   0  0  0  0  0  0  0  0  0  0  0  0
    4.8415   -1.8058    0.1827 C   0  0  0  0  0  0  0  0  0  0  0  0
   -1.8155    0.0864    1.4108 C   0  0  0  0  0  0  0  0  0  0  0  0
   -3.2906    0.2812    1.3993 C   0  0  0  0  0  0  0  0  0  0  0  0
   -3.9652    0.2124    0.0787 C   0  0  1  0  0  0  0  0  0  0  0  0
   -3.1308    0.1889   -1.0120 O   0  0  0  0  0  0  0  0  0  0  0  0
   -4.8700   -1.0157   -0.0042 C   0  0  0  0  0  0  0  0  0  0  0  0
   -4.0369   -2.6592   -0.4580 S   0  0  0  0  0  0  0  0  0  0  0  0
   -5.6622   -3.5065   -0.3473 C   0  0  0  0  0  0  0  0  0  0  0  0
   -6.5809   -2.4794    0.0030 C   0  0  0  0  0  0  0  0  0  0  0  0
   -5.9735   -1.3243    0.1218 N   0  0  0  0  0  0  0  0  0  0  0  0
   -7.9896   -2.8011    0.1778 C   0  0  0  0  0  0  0  0  0  0  0  0
   -8.3785   -3.9847    0.0169 O   0  0  0  0  0  0  0  0  0  0  0  0
   -8.9060   -1.8334    0.5164 O   0  0  0  0  0  0  0  0  0  0  0  0
   -2.4764    4.0411    1.2728 H   0  0  0  0  0  0  0  0  0  0  0  0
   -0.7241    3.7980   -0.0858 H   0  0  0  0  0  0  0  0  0  0  0  0
   -2.1508    3.0155   -1.6531 H   0  0  0  0  0  0  0  0  0  0  0  0
   -3.3600    2.6321   -0.4029 H   0  0  0  0  0  0  0  0  0  0  0  0
   -1.4506    0.8825   -1.8587 H   0  0  0  0  0  0  0  0  0  0  0  0
   -0.4042   -0.2480   -0.1521 H   0  0  0  0  0  0  0  0  0  0  0  0
    0.1971    1.7994    1.4533 H   0  0  0  0  0  0  0  0  0  0  0  0
    0.4144    1.8908   -1.6537 H   0  0  0  0  0  0  0  0  0  0  0  0
    2.2629    2.1823    0.7446 H   0  0  0  0  0  0  0  0  0  0  0  0
    2.5285    2.3152   -2.4003 H   0  0  0  0  0  0  0  0  0  0  0  0
    3.5945    3.2285   -1.2547 H   0  0  0  0  0  0  0  0  0  0  0  0
    3.6672    0.2128   -1.5812 H   0  0  0  0  0  0  0  0  0  0  0  0
    4.8272    1.5024   -2.1664 H   0  0  0  0  0  0  0  0  0  0  0  0
    5.2825    2.3497   -0.0642 H   0  0  0  0  0  0  0  0  0  0  0  0
    4.0830    1.3138    0.7655 H   0  0  0  0  0  0  0  0  0  0  0  0
    8.0474   -0.8899    0.5481 H   0  0  0  0  0  0  0  0  0  0  0  0
    8.3013   -3.2714    0.7621 H   0  0  0  0  0  0  0  0  0  0  0  0
    6.4362   -4.7807    0.6228 H   0  0  0  0  0  0  0  0  0  0  0  0
    4.1518   -3.8668    0.2443 H   0  0  0  0  0  0  0  0  0  0  0  0
    3.8578   -1.4477    0.0323 H   0  0  0  0  0  0  0  0  0  0  0  0
   -1.4277    0.6798    2.2901 H   0  0  0  0  0  0  0  0  0  0  0  0
   -1.5367   -0.9645    1.6605 H   0  0  0  0  0  0  0  0  0  0  0  0
   -3.7186   -0.5247    2.0498 H   0  0  0  0  0  0  0  0  0  0  0  0
   -3.6133    1.2250    1.9161 H   0  0  0  0  0  0  0  0  0  0  0  0
   -4.6754    1.0505   -0.0634 H   0  0  0  0  0  0  0  0  0  0  0  0
   -5.8217   -4.5892   -0.5274 H   0  0  0  0  0  0  0  0  0  0  0  0
   -9.9162   -1.9218    0.3327 H   0  0  0  0  0  0  0  0  0  0  0  0
  1  2  1  0
  2  3  1  0
  3  4  1  0
  4  5  1  0
  5  6  1  0
  6  7  1  0
  7  8  2  0
  8  9  1  0
  9 10  1  0
 10 11  1  0
 11 12  1  0
 12 13  1  0
 13 14  2  0
 14 15  1  0
 15 16  2  0
 16 17  1  0
 17 18  2  0
  5 19  1  0
 19 20  1  0
 20 21  1  0
 21 22  1  0
 21 23  1  0
 23 24  1  0
 24 25  1  0
 25 26  2  0
 26 27  1  0
 26 28  1  0
 28 29  2  0
 28 30  1  0
  6  2  1  0
 18 13  1  0
 27 23  2  0
 22  4  1  0
  1 31  1  0
  2 32  1  6
  3 33  1  0
  3 34  1  0
  4 35  1  6
  5 36  1  6
  6 37  1  1
  7 38  1  0
  8 39  1  0
  9 40  1  0
  9 41  1  0
 10 42  1  0
 10 43  1  0
 11 44  1  0
 11 45  1  0
 14 46  1  0
 15 47  1  0
 16 48  1  0
 17 49  1  0
 18 50  1  0
 19 51  1  0
 19 52  1  0
 20 53  1  0
 20 54  1  0
 21 55  1  6
 25 56  1  0
 30 57  1  0
M  END
>  <Ligand ID>  (1) 
LIG0000834

>  <Ligand>  (1) 
CHEMBL3805169

>  <SMILES>  (1) 
O[C@@H]1C[C@H]2[C@@H]([C@H]1/C=C/CCCOc1ccccc1)CC[C@@H](O2)c1scc(n1)C(=O)O

>  <CID>  (1) 
126495491.0

>  <ChEMBL ID>  (1) 
nan

>  <InChiKey>  (1) 
OACWFSQWEUEBBE-HYXNAZNSSA-N

>  <InChi>  (1) 
InChI=1S/C23H27NO5S/c25-19-13-21-17(10-11-20(29-21)22-24-18(14-30-22)23(26)27)16(19)9-5-2-6-12-28-15-7-3-1-4-8-15/h1,3-5,7-9,14,16-17,19-21,25H,2,6,10-13H2,(H,26,27)/b9-5+/t16-,17-,19-,20-,21+/m1/s1

>  <IUPAC Name>  (1) 
2-[(2R,4aR,5R,6R,7aS)-6-hydroxy-5-[(E)-5-phenoxypent-1-enyl]-2,3,4,4a,5,6,7,7a-octahydrocyclopenta[b]pyran-2-yl]-1,3-thiazole-4-carboxylic acid

$$$$
