
     RDKit          3D

 41 44  0  0  0  0  0  0  0  0999 V2000
    5.8163    0.1993    1.0112 O   0  0  0  0  0  0  0  0  0  0  0  0
    4.4895    0.0018    0.6010 C   0  0  0  0  0  0  0  0  0  0  0  0
    4.0305   -1.2185    0.1720 C   0  0  0  0  0  0  0  0  0  0  0  0
    2.7321   -1.3612   -0.2168 C   0  0  0  0  0  0  0  0  0  0  0  0
    1.8136   -0.3081   -0.2042 C   0  0  0  0  0  0  0  0  0  0  0  0
    2.2749    0.9184    0.2269 C   0  0  0  0  0  0  0  0  0  0  0  0
    3.6069    1.0654    0.6260 C   0  0  0  0  0  0  0  0  0  0  0  0
    1.4222    2.1321    0.2975 C   0  0  0  0  0  0  0  0  0  0  0  0
    0.2398    1.8967   -0.6476 C   0  0  0  0  0  0  0  0  0  0  0  0
   -0.4299    0.6495   -0.1675 C   0  0  2  0  0  0  0  0  0  0  0  0
    0.4365   -0.5319   -0.6346 C   0  0  2  0  0  0  0  0  0  0  0  0
   -0.1518   -1.7622    0.0175 C   0  0  0  0  0  0  0  0  0  0  0  0
   -1.5733   -1.9888   -0.3744 C   0  0  0  0  0  0  0  0  0  0  0  0
   -2.3927   -0.7885   -0.0311 C   0  0  1  0  0  0  0  0  0  0  0  0
   -1.7481    0.3904   -0.7493 C   0  0  1  0  0  0  0  0  0  0  0  0
   -2.8321    1.3773   -0.6006 C   0  0  0  0  0  0  0  0  0  0  0  0
   -4.0116    0.5373   -1.0366 C   0  0  0  0  0  0  0  0  0  0  0  0
   -3.7277   -0.7337   -0.6897 C   0  0  0  0  0  0  0  0  0  0  0  0
   -2.6045   -0.5734    1.4224 C   0  0  0  0  0  0  0  0  0  0  0  0
    6.4027    0.6619    0.3002 H   0  0  0  0  0  0  0  0  0  0  0  0
    4.7041   -2.0677    0.1436 H   0  0  0  0  0  0  0  0  0  0  0  0
    2.4237   -2.3636   -0.5505 H   0  0  0  0  0  0  0  0  0  0  0  0
    4.0003    2.0167    0.9701 H   0  0  0  0  0  0  0  0  0  0  0  0
    0.9636    2.1928    1.3258 H   0  0  0  0  0  0  0  0  0  0  0  0
    1.9414    3.0633    0.0442 H   0  0  0  0  0  0  0  0  0  0  0  0
   -0.4189    2.7893   -0.6305 H   0  0  0  0  0  0  0  0  0  0  0  0
    0.7027    1.7174   -1.6418 H   0  0  0  0  0  0  0  0  0  0  0  0
   -0.3587    0.6195    0.9322 H   0  0  0  0  0  0  0  0  0  0  0  0
    0.3606   -0.6735   -1.7378 H   0  0  0  0  0  0  0  0  0  0  0  0
   -0.0856   -1.7022    1.1198 H   0  0  0  0  0  0  0  0  0  0  0  0
    0.4221   -2.6677   -0.2897 H   0  0  0  0  0  0  0  0  0  0  0  0
   -1.9534   -2.8376    0.2581 H   0  0  0  0  0  0  0  0  0  0  0  0
   -1.7267   -2.2959   -1.4113 H   0  0  0  0  0  0  0  0  0  0  0  0
   -1.6252    0.0924   -1.8050 H   0  0  0  0  0  0  0  0  0  0  0  0
   -3.0021    1.6434    0.4533 H   0  0  0  0  0  0  0  0  0  0  0  0
   -2.7261    2.2812   -1.2184 H   0  0  0  0  0  0  0  0  0  0  0  0
   -4.9176    0.8773   -1.5333 H   0  0  0  0  0  0  0  0  0  0  0  0
   -4.4037   -1.5719   -0.8810 H   0  0  0  0  0  0  0  0  0  0  0  0
   -3.6946   -0.5025    1.7140 H   0  0  0  0  0  0  0  0  0  0  0  0
   -2.2471   -1.4961    1.9643 H   0  0  0  0  0  0  0  0  0  0  0  0
   -2.1521    0.3216    1.8595 H   0  0  0  0  0  0  0  0  0  0  0  0
  1  2  1  0
  2  3  2  0
  3  4  1  0
  4  5  2  0
  5  6  1  0
  6  7  2  0
  6  8  1  0
  8  9  1  0
  9 10  1  0
 10 11  1  0
 11 12  1  0
 12 13  1  0
 13 14  1  0
 14 15  1  0
 15 16  1  0
 16 17  1  0
 17 18  2  0
 14 19  1  1
  7  2  1  0
 15 10  1  0
 11  5  1  0
 18 14  1  0
  1 20  1  0
  3 21  1  0
  4 22  1  0
  7 23  1  0
  8 24  1  0
  8 25  1  0
  9 26  1  0
  9 27  1  0
 10 28  1  1
 11 29  1  6
 12 30  1  0
 12 31  1  0
 13 32  1  0
 13 33  1  0
 15 34  1  6
 16 35  1  0
 16 36  1  0
 17 37  1  0
 18 38  1  0
 19 39  1  0
 19 40  1  0
 19 41  1  0
M  END
>  <Ligand ID>  (1) 
LIG0000482

>  <Ligand>  (1) 
Estra-1,3,5(10),16-tetraen-3-ol

>  <SMILES>  (1) 
Oc1ccc2c(c1)CC[C@@H]1[C@@H]2CC[C@]2([C@H]1CC=C2)C

>  <CID>  (1) 
101988.0

>  <ChEMBL ID>  (1) 
nan

>  <InChiKey>  (1) 
CRMOMCHYBNOFIV-BDXSIMOUSA-N

>  <InChi>  (1) 
InChI=1S/C18H22O/c1-18-9-2-3-17(18)16-6-4-12-11-13(19)5-7-14(12)15(16)8-10-18/h2,5,7,9,11,15-17,19H,3-4,6,8,10H2,1H3/t15-,16-,17+,18+/m1/s1

>  <IUPAC Name>  (1) 
(8S,9S,13R,14S)-13-methyl-6,7,8,9,11,12,14,15-octahydrocyclopenta[a]phenanthren-3-ol

$$$$
