
     RDKit          3D

 44 46  0  0  0  0  0  0  0  0999 V2000
    6.2057   -0.4844    3.7804 O   0  0  0  0  0  0  0  0  0  0  0  0
    6.4563   -0.1144    2.4732 C   0  0  0  0  0  0  0  0  0  0  0  0
    7.5867    0.3701    2.1416 O   0  0  0  0  0  0  0  0  0  0  0  0
    5.3676   -0.3017    1.4802 C   0  0  0  0  0  0  0  0  0  0  0  0
    5.7940    0.1486    0.0988 C   0  0  0  0  0  0  0  0  0  0  0  0
    4.6696   -0.0676   -0.8200 C   0  0  0  0  0  0  0  0  0  0  0  0
    4.4872   -1.2475   -1.5168 C   0  0  0  0  0  0  0  0  0  0  0  0
    3.4228   -1.4453   -2.3833 C   0  0  0  0  0  0  0  0  0  0  0  0
    2.4871   -0.4417   -2.5815 C   0  0  0  0  0  0  0  0  0  0  0  0
    2.6774    0.7270   -1.8846 C   0  0  0  0  0  0  0  0  0  0  0  0
    3.7380    0.9230   -1.0217 C   0  0  0  0  0  0  0  0  0  0  0  0
    1.4551   -0.6926   -3.4505 O   0  0  0  0  0  0  0  0  0  0  0  0
    0.3981    0.1120   -3.8250 C   0  0  0  0  0  0  0  0  0  0  0  0
   -0.5078    0.5284   -2.7126 C   0  0  0  0  0  0  0  0  0  0  0  0
   -0.7734    1.3008   -1.8775 N   0  0  0  0  0  0  0  0  0  0  0  0
   -1.7694    1.2515   -1.0527 N   0  0  0  0  0  0  0  0  0  0  0  0
   -2.5762    0.4102   -1.0123 C   0  0  0  0  0  0  0  0  0  0  0  0
   -1.9580   -0.7032   -2.4201 S   0  0  0  0  0  0  0  0  0  0  0  0
   -3.8003   -0.1103   -0.3588 C   0  0  0  0  0  0  0  0  0  0  0  0
   -4.3410   -1.1789   -0.7271 O   0  0  0  0  0  0  0  0  0  0  0  0
   -4.3082    0.6827    0.7023 N   0  0  0  0  0  0  0  0  0  0  0  0
   -5.4801    0.3158    1.4309 C   0  0  0  0  0  0  0  0  0  0  0  0
   -6.7029    0.7772    0.9591 C   0  0  0  0  0  0  0  0  0  0  0  0
   -7.8957    0.4729    1.5997 C   0  0  0  0  0  0  0  0  0  0  0  0
   -7.8483   -0.3196    2.7486 C   0  0  0  0  0  0  0  0  0  0  0  0
   -6.6166   -0.7749    3.2101 C   0  0  0  0  0  0  0  0  0  0  0  0
   -5.4321   -0.4667    2.5651 C   0  0  0  0  0  0  0  0  0  0  0  0
   -4.2396   -0.9023    3.0043 F   0  0  0  0  0  0  0  0  0  0  0  0
    6.9020   -0.4012    4.5193 H   0  0  0  0  0  0  0  0  0  0  0  0
    4.4845    0.2715    1.8010 H   0  0  0  0  0  0  0  0  0  0  0  0
    5.1071   -1.3699    1.4171 H   0  0  0  0  0  0  0  0  0  0  0  0
    6.1671    1.1935    0.0927 H   0  0  0  0  0  0  0  0  0  0  0  0
    6.6361   -0.5192   -0.2037 H   0  0  0  0  0  0  0  0  0  0  0  0
    5.2226   -2.0486   -1.3668 H   0  0  0  0  0  0  0  0  0  0  0  0
    3.3299   -2.4014   -2.9081 H   0  0  0  0  0  0  0  0  0  0  0  0
    1.9825    1.5350   -2.0073 H   0  0  0  0  0  0  0  0  0  0  0  0
    3.8403    1.8677   -0.4955 H   0  0  0  0  0  0  0  0  0  0  0  0
   -0.1597   -0.4442   -4.6338 H   0  0  0  0  0  0  0  0  0  0  0  0
    0.7570    1.0362   -4.3697 H   0  0  0  0  0  0  0  0  0  0  0  0
   -3.8288    1.5661    0.9786 H   0  0  0  0  0  0  0  0  0  0  0  0
   -6.7457    1.3880    0.0747 H   0  0  0  0  0  0  0  0  0  0  0  0
   -8.8204    0.8502    1.2014 H   0  0  0  0  0  0  0  0  0  0  0  0
   -8.7801   -0.5483    3.2358 H   0  0  0  0  0  0  0  0  0  0  0  0
   -6.5905   -1.3977    4.1147 H   0  0  0  0  0  0  0  0  0  0  0  0
  1  2  1  0
  2  3  2  0
  2  4  1  0
  4  5  1  0
  5  6  1  0
  6  7  2  0
  7  8  1  0
  8  9  2  0
  9 10  1  0
 10 11  2  0
  9 12  1  0
 12 13  1  0
 13 14  1  0
 14 15  2  0
 15 16  1  0
 16 17  2  0
 17 18  1  0
 17 19  1  0
 19 20  2  0
 19 21  1  0
 21 22  1  0
 22 23  2  0
 23 24  1  0
 24 25  2  0
 25 26  1  0
 26 27  2  0
 27 28  1  0
 11  6  1  0
 18 14  1  0
 27 22  1  0
  1 29  1  0
  4 30  1  0
  4 31  1  0
  5 32  1  0
  5 33  1  0
  7 34  1  0
  8 35  1  0
 10 36  1  0
 11 37  1  0
 13 38  1  0
 13 39  1  0
 21 40  1  0
 23 41  1  0
 24 42  1  0
 25 43  1  0
 26 44  1  0
M  END
>  <Ligand ID>  (1) 
LIG0001242

>  <Ligand>  (1) 
CHEMBL3805888

>  <SMILES>  (1) 
OC(=O)CCc1ccc(cc1)OCc1nnc(s1)C(=O)Nc1ccccc1F

>  <CID>  (1) 
127051658.0

>  <ChEMBL ID>  (1) 
nan

>  <InChiKey>  (1) 
INGBGXUKWXLGIA-UHFFFAOYSA-N

>  <InChi>  (1) 
InChI=1S/C19H16FN3O4S/c20-14-3-1-2-4-15(14)21-18(26)19-23-22-16(28-19)11-27-13-8-5-12(6-9-13)7-10-17(24)25/h1-6,8-9H,7,10-11H2,(H,21,26)(H,24,25)

>  <IUPAC Name>  (1) 
3-[4-[[5-[(2-fluorophenyl)carbamoyl]-1,3,4-thiadiazol-2-yl]methoxy]phenyl]propanoic acid

$$$$
