
     RDKit          3D

 47 49  0  0  0  0  0  0  0  0999 V2000
    0.1630   -2.0801    2.1177 O   0  0  0  0  0  0  0  0  0  0  0  0
   -0.7815   -1.7147    1.1891 C   0  0  2  0  0  0  0  0  0  0  0  0
   -0.5890   -0.3342    0.6135 C   0  0  1  0  0  0  0  0  0  0  0  0
    0.4975   -0.2212   -0.3934 C   0  0  0  0  0  0  0  0  0  0  0  0
    1.7285   -0.4173    0.1879 O   0  0  0  0  0  0  0  0  0  0  0  0
    3.0019   -0.3000   -0.9116 P   0  0  0  0  0  0  0  0  0  0  0  0
    2.8031   -1.0929   -2.1589 O   0  0  0  0  0  0  0  0  0  0  0  0
    4.3997   -0.8314   -0.1325 O   0  0  0  0  0  0  0  0  0  0  0  0
    5.7646    0.0232   -0.6405 P   0  0  0  0  0  0  0  0  0  0  0  0
    6.4190   -0.7047   -1.7927 O   0  0  0  0  0  0  0  0  0  0  0  0
    6.8866    0.0440    0.6276 O   0  0  0  0  0  0  0  0  0  0  0  0
    8.3507    0.6479    0.0285 P   0  0  0  0  0  0  0  0  0  0  0  0
    9.4381    0.6035    1.0608 O   0  0  0  0  0  0  0  0  0  0  0  0
    8.0727    2.2335   -0.4886 O   0  0  0  0  0  0  0  0  0  0  0  0
    8.7849   -0.3367   -1.2724 O   0  0  0  0  0  0  0  0  0  0  0  0
    5.4055    1.5855   -1.1613 O   0  0  0  0  0  0  0  0  0  0  0  0
    3.2640    1.3106   -1.3800 O   0  0  0  0  0  0  0  0  0  0  0  0
   -1.8694   -0.1371    0.0455 O   0  0  0  0  0  0  0  0  0  0  0  0
   -2.6281   -0.2576    1.2219 C   0  0  2  0  0  0  0  0  0  0  0  0
   -2.1854   -1.5624    1.7909 C   0  0  2  0  0  0  0  0  0  0  0  0
   -2.0161   -1.4136    3.1863 O   0  0  0  0  0  0  0  0  0  0  0  0
   -4.0379   -0.1568    0.9597 N   0  0  0  0  0  0  0  0  0  0  0  0
   -5.0047   -0.4784    1.8192 C   0  0  0  0  0  0  0  0  0  0  0  0
   -6.1906   -0.2497    1.2156 N   0  0  0  0  0  0  0  0  0  0  0  0
   -5.9610    0.2157   -0.0235 C   0  0  0  0  0  0  0  0  0  0  0  0
   -4.5933    0.2750   -0.1868 C   0  0  0  0  0  0  0  0  0  0  0  0
   -4.0369    0.7052   -1.3335 N   0  0  0  0  0  0  0  0  0  0  0  0
   -4.8433    1.0834   -2.3365 C   0  0  0  0  0  0  0  0  0  0  0  0
   -6.1814    1.0383   -2.2110 N   0  0  0  0  0  0  0  0  0  0  0  0
   -6.7875    0.6126   -1.0758 C   0  0  0  0  0  0  0  0  0  0  0  0
   -8.2044    0.5634   -0.9390 N   0  0  0  0  0  0  0  0  0  0  0  0
    0.5750   -1.3476    2.6097 H   0  0  0  0  0  0  0  0  0  0  0  0
   -0.7930   -2.4853    0.3947 H   0  0  0  0  0  0  0  0  0  0  0  0
   -0.5327    0.3913    1.4367 H   0  0  0  0  0  0  0  0  0  0  0  0
    0.3772    0.7494   -0.9114 H   0  0  0  0  0  0  0  0  0  0  0  0
    0.3333   -1.0113   -1.1596 H   0  0  0  0  0  0  0  0  0  0  0  0
    7.5388    2.7431    0.1545 H   0  0  0  0  0  0  0  0  0  0  0  0
    9.1937   -1.1601   -0.8536 H   0  0  0  0  0  0  0  0  0  0  0  0
    5.2261    2.2115   -0.4372 H   0  0  0  0  0  0  0  0  0  0  0  0
    2.4744    1.8727   -1.2198 H   0  0  0  0  0  0  0  0  0  0  0  0
   -2.2350    0.5539    1.8869 H   0  0  0  0  0  0  0  0  0  0  0  0
   -2.8278   -2.4243    1.5824 H   0  0  0  0  0  0  0  0  0  0  0  0
   -1.6536   -0.4831    3.3196 H   0  0  0  0  0  0  0  0  0  0  0  0
   -4.9112   -0.8537    2.8173 H   0  0  0  0  0  0  0  0  0  0  0  0
   -4.3914    1.4335   -3.2697 H   0  0  0  0  0  0  0  0  0  0  0  0
   -8.6847    1.4746   -0.7058 H   0  0  0  0  0  0  0  0  0  0  0  0
   -8.7585   -0.3174   -1.0591 H   0  0  0  0  0  0  0  0  0  0  0  0
  1  2  1  0
  2  3  1  0
  3  4  1  0
  4  5  1  0
  5  6  1  0
  6  7  2  0
  6  8  1  0
  8  9  1  0
  9 10  2  0
  9 11  1  0
 11 12  1  0
 12 13  2  0
 12 14  1  0
 12 15  1  0
  9 16  1  0
  6 17  1  0
  3 18  1  0
 18 19  1  0
 19 20  1  0
 20 21  1  0
 19 22  1  0
 22 23  1  0
 23 24  2  0
 24 25  1  0
 25 26  2  0
 26 27  1  0
 27 28  2  0
 28 29  1  0
 29 30  2  0
 30 31  1  0
 20  2  1  0
 26 22  1  0
 30 25  1  0
  1 32  1  0
  2 33  1  6
  3 34  1  1
  4 35  1  0
  4 36  1  0
 14 37  1  0
 15 38  1  0
 16 39  1  0
 17 40  1  0
 19 41  1  1
 20 42  1  1
 21 43  1  0
 23 44  1  0
 28 45  1  0
 31 46  1  0
 31 47  1  0
M  END
>  <Ligand ID>  (1) 
LIG0000832

>  <Ligand>  (1) 
ATP

>  <SMILES>  (1) 
O[C@@H]1[C@@H](COP(=O)(OP(=O)(OP(=O)(O)O)O)O)O[C@H]([C@@H]1O)n1cnc2c1ncnc2N

>  <CID>  (1) 
5957.0

>  <ChEMBL ID>  (1) 
nan

>  <InChiKey>  (1) 
ZKHQWZAMYRWXGA-KQYNXXCUSA-N

>  <InChi>  (1) 
InChI=1S/C10H16N5O13P3/c11-8-5-9(13-2-12-8)15(3-14-5)10-7(17)6(16)4(26-10)1-25-30(21,22)28-31(23,24)27-29(18,19)20/h2-4,6-7,10,16-17H,1H2,(H,21,22)(H,23,24)(H2,11,12,13)(H2,18,19,20)/t4-,6-,7-,10-/m1/s1

>  <IUPAC Name>  (1) 
[[(2R,3S,4R,5R)-5-(6-aminopurin-9-yl)-3,4-dihydroxyoxolan-2-yl]methoxy-hydroxyphosphoryl] phosphono hydrogen phosphate

$$$$
