
     RDKit          3D

 93 97  0  0  0  0  0  0  0  0999 V2000
    0.4979    6.7135   -0.2028 N   0  0  0  0  0  0  0  0  0  0  0  0
    0.4329    5.7201    0.8140 C   0  0  0  0  0  0  0  0  0  0  0  0
    0.5000    4.4817    0.4580 N   0  0  0  0  0  0  0  0  0  0  0  0
    0.6346    4.2264   -0.9440 C   0  0  0  0  0  0  0  0  0  0  0  0
    1.0895    2.8026   -1.2537 C   0  0  0  0  0  0  0  0  0  0  0  0
    0.1481    1.7835   -0.7432 C   0  0  0  0  0  0  0  0  0  0  0  0
    0.4776    0.3598   -1.0445 C   0  0  1  0  0  0  0  0  0  0  0  0
    1.7640   -0.1383   -0.5452 C   0  0  0  0  0  0  0  0  0  0  0  0
    1.7770   -1.0344    0.3731 O   0  0  0  0  0  0  0  0  0  0  0  0
    3.0366    0.2800   -0.9927 N   0  0  0  0  0  0  0  0  0  0  0  0
    4.2510   -0.2955   -0.4030 C   0  0  2  0  0  0  0  0  0  0  0  0
    5.0310    0.8360    0.1591 C   0  0  0  0  0  0  0  0  0  0  0  0
    4.6312    2.0415    0.0868 O   0  0  0  0  0  0  0  0  0  0  0  0
    6.2828    0.6461    0.8189 N   0  0  0  0  0  0  0  0  0  0  0  0
    5.0829   -0.9523   -1.4644 C   0  0  0  0  0  0  0  0  0  0  0  0
    6.3193   -1.5446   -0.8973 C   0  0  0  0  0  0  0  0  0  0  0  0
    7.6255   -1.0647   -0.9654 C   0  0  0  0  0  0  0  0  0  0  0  0
    8.4367   -1.9330   -0.3043 N   0  0  0  0  0  0  0  0  0  0  0  0
    7.6792   -2.9462    0.1785 C   0  0  0  0  0  0  0  0  0  0  0  0
    6.3582   -2.7303   -0.1756 C   0  0  0  0  0  0  0  0  0  0  0  0
    5.3639   -3.6189    0.1917 C   0  0  0  0  0  0  0  0  0  0  0  0
    5.7210   -4.7357    0.9254 C   0  0  0  0  0  0  0  0  0  0  0  0
    7.0491   -4.9312    1.2684 C   0  0  0  0  0  0  0  0  0  0  0  0
    8.0550   -4.0628    0.9152 C   0  0  0  0  0  0  0  0  0  0  0  0
   -0.6209   -0.5026   -0.5178 N   0  0  0  0  0  0  0  0  0  0  0  0
   -0.8413   -0.5960    0.8979 C   0  0  0  0  0  0  0  0  0  0  0  0
   -0.1609    0.0001    1.7399 O   0  0  0  0  0  0  0  0  0  0  0  0
   -1.9440   -1.4600    1.3500 C   0  0  2  0  0  0  0  0  0  0  0  0
   -2.8515   -1.7996    0.2705 N   0  0  0  0  0  0  0  0  0  0  0  0
   -2.8827   -3.1350   -0.2460 C   0  0  0  0  0  0  0  0  0  0  0  0
   -4.0101   -3.4554   -1.1040 C   0  0  0  0  0  0  0  0  0  0  0  0
   -3.9368   -4.4798   -2.0562 C   0  0  0  0  0  0  0  0  0  0  0  0
   -5.0892   -4.5668   -2.7000 N   0  0  0  0  0  0  0  0  0  0  0  0
   -5.8995   -3.6475   -2.2075 N   0  0  0  0  0  0  0  0  0  0  0  0
   -5.2599   -2.9720   -1.2453 N   0  0  0  0  0  0  0  0  0  0  0  0
   -5.8474   -1.8880   -0.4861 C   0  0  0  0  0  0  0  0  0  0  0  0
   -5.0394   -0.6563   -0.7131 C   0  0  1  0  0  0  0  0  0  0  0  0
   -3.6548   -0.7084   -0.1870 C   0  0  0  0  0  0  0  0  0  0  0  0
   -3.1235    0.4565   -0.1551 O   0  0  0  0  0  0  0  0  0  0  0  0
   -5.0913   -0.2512   -2.0907 N   0  0  0  0  0  0  0  0  0  0  0  0
   -5.6640    0.9678   -2.5442 C   0  0  0  0  0  0  0  0  0  0  0  0
   -6.1625    1.7583   -1.7131 O   0  0  0  0  0  0  0  0  0  0  0  0
   -5.6998    1.3551   -3.9832 C   0  0  0  0  0  0  0  0  0  0  0  0
   -2.5786   -1.1518    2.6482 C   0  0  0  0  0  0  0  0  0  0  0  0
   -3.2375    0.1189    2.8654 C   0  0  0  0  0  0  0  0  0  0  0  0
   -2.6631    1.2834    3.3185 C   0  0  0  0  0  0  0  0  0  0  0  0
   -3.3852    2.4550    3.5208 C   0  0  0  0  0  0  0  0  0  0  0  0
   -4.7401    2.5023    3.2710 C   0  0  0  0  0  0  0  0  0  0  0  0
   -5.3360    1.3462    2.8168 C   0  0  0  0  0  0  0  0  0  0  0  0
   -4.6183    0.1884    2.6173 C   0  0  0  0  0  0  0  0  0  0  0  0
    0.2976    6.0279    2.1967 N   0  0  0  0  0  0  0  0  0  0  0  0
    1.3165    7.3408   -0.2035 H   0  0  0  0  0  0  0  0  0  0  0  0
   -0.2746    6.7947   -0.9277 H   0  0  0  0  0  0  0  0  0  0  0  0
   -0.2979    4.4757   -1.4760 H   0  0  0  0  0  0  0  0  0  0  0  0
    1.4196    4.8968   -1.3514 H   0  0  0  0  0  0  0  0  0  0  0  0
    2.0726    2.6617   -0.7015 H   0  0  0  0  0  0  0  0  0  0  0  0
    1.2113    2.7268   -2.3415 H   0  0  0  0  0  0  0  0  0  0  0  0
    0.0620    1.8511    0.3845 H   0  0  0  0  0  0  0  0  0  0  0  0
   -0.9063    2.0214   -1.0778 H   0  0  0  0  0  0  0  0  0  0  0  0
    0.4761    0.1979   -2.1386 H   0  0  0  0  0  0  0  0  0  0  0  0
    3.1475    0.9647   -1.7379 H   0  0  0  0  0  0  0  0  0  0  0  0
    4.0073   -1.0486    0.3657 H   0  0  0  0  0  0  0  0  0  0  0  0
    7.0646    1.3118    0.5999 H   0  0  0  0  0  0  0  0  0  0  0  0
    6.3833   -0.1424    1.4938 H   0  0  0  0  0  0  0  0  0  0  0  0
    5.4198   -0.2164   -2.2406 H   0  0  0  0  0  0  0  0  0  0  0  0
    4.5252   -1.7343   -2.0273 H   0  0  0  0  0  0  0  0  0  0  0  0
    7.9193   -0.1515   -1.4663 H   0  0  0  0  0  0  0  0  0  0  0  0
    9.4693   -1.8297   -0.1923 H   0  0  0  0  0  0  0  0  0  0  0  0
    4.3246   -3.4515   -0.0856 H   0  0  0  0  0  0  0  0  0  0  0  0
    4.9429   -5.4375    1.2171 H   0  0  0  0  0  0  0  0  0  0  0  0
    7.2597   -5.8252    1.8431 H   0  0  0  0  0  0  0  0  0  0  0  0
    9.0923   -4.2324    1.1938 H   0  0  0  0  0  0  0  0  0  0  0  0
   -1.2169   -1.0508   -1.2071 H   0  0  0  0  0  0  0  0  0  0  0  0
   -1.4111   -2.4702    1.5454 H   0  0  0  0  0  0  0  0  0  0  0  0
   -1.9344   -3.3964   -0.8002 H   0  0  0  0  0  0  0  0  0  0  0  0
   -2.8798   -3.8476    0.6223 H   0  0  0  0  0  0  0  0  0  0  0  0
   -3.0645   -5.1007   -2.2312 H   0  0  0  0  0  0  0  0  0  0  0  0
   -5.9989   -2.1407    0.5674 H   0  0  0  0  0  0  0  0  0  0  0  0
   -6.8617   -1.6835   -0.8988 H   0  0  0  0  0  0  0  0  0  0  0  0
   -5.5324    0.1684   -0.1326 H   0  0  0  0  0  0  0  0  0  0  0  0
   -4.6876   -0.8731   -2.8477 H   0  0  0  0  0  0  0  0  0  0  0  0
   -5.1189    2.2701   -4.1851 H   0  0  0  0  0  0  0  0  0  0  0  0
   -5.3844    0.4778   -4.5584 H   0  0  0  0  0  0  0  0  0  0  0  0
   -6.7714    1.5905   -4.2467 H   0  0  0  0  0  0  0  0  0  0  0  0
   -3.2802   -2.0335    2.8460 H   0  0  0  0  0  0  0  0  0  0  0  0
   -1.8429   -1.2880    3.5114 H   0  0  0  0  0  0  0  0  0  0  0  0
   -1.6260    1.3189    3.5413 H   0  0  0  0  0  0  0  0  0  0  0  0
   -2.8730    3.3439    3.8807 H   0  0  0  0  0  0  0  0  0  0  0  0
   -5.2635    3.4300    3.4407 H   0  0  0  0  0  0  0  0  0  0  0  0
   -6.4065    1.4026    2.6246 H   0  0  0  0  0  0  0  0  0  0  0  0
   -5.1754   -0.6679    2.2626 H   0  0  0  0  0  0  0  0  0  0  0  0
    0.7584    5.4049    2.8738 H   0  0  0  0  0  0  0  0  0  0  0  0
   -0.2688    6.8788    2.4451 H   0  0  0  0  0  0  0  0  0  0  0  0
  1  2  1  0
  2  3  2  3
  3  4  1  0
  4  5  1  0
  5  6  1  0
  6  7  1  0
  7  8  1  0
  8  9  2  0
  8 10  1  0
 10 11  1  0
 11 12  1  0
 12 13  2  0
 12 14  1  0
 11 15  1  0
 15 16  1  0
 16 17  2  0
 17 18  1  0
 18 19  1  0
 19 20  2  0
 20 21  1  0
 21 22  2  0
 22 23  1  0
 23 24  2  0
  7 25  1  0
 25 26  1  0
 26 27  2  0
 26 28  1  0
 28 29  1  0
 29 30  1  0
 30 31  1  0
 31 32  2  0
 32 33  1  0
 33 34  2  0
 34 35  1  0
 35 36  1  0
 36 37  1  0
 37 38  1  0
 38 39  2  0
 37 40  1  0
 40 41  1  0
 41 42  2  0
 41 43  1  0
 28 44  1  0
 44 45  1  0
 45 46  2  0
 46 47  1  0
 47 48  2  0
 48 49  1  0
 49 50  2  0
  2 51  1  0
 20 16  1  0
 38 29  1  0
 50 45  1  0
 24 19  1  0
 35 31  1  0
  1 52  1  0
  1 53  1  0
  4 54  1  0
  4 55  1  0
  5 56  1  0
  5 57  1  0
  6 58  1  0
  6 59  1  0
  7 60  1  6
 10 61  1  0
 11 62  1  1
 14 63  1  0
 14 64  1  0
 15 65  1  0
 15 66  1  0
 17 67  1  0
 18 68  1  0
 21 69  1  0
 22 70  1  0
 23 71  1  0
 24 72  1  0
 25 73  1  0
 28 74  1  1
 30 75  1  0
 30 76  1  0
 32 77  1  0
 36 78  1  0
 36 79  1  0
 37 80  1  1
 40 81  1  0
 43 82  1  0
 43 83  1  0
 43 84  1  0
 44 85  1  0
 44 86  1  0
 46 87  1  0
 47 88  1  0
 48 89  1  0
 49 90  1  0
 50 91  1  0
 51 92  1  0
 51 93  1  0
M  END
>  <Ligand ID>  (1) 
LIG0003322

>  <Ligand>  (1) 
CHEMBL3421680

>  <SMILES>  (1) 
NC(=NCCC[C@@H](C(=O)N[C@H](C(=O)N)Cc1c[nH]c2c1cccc2)NC(=O)[C@H](N1Cc2cnnn2C[C@@H](C1=O)NC(=O)C)Cc1ccccc1)N

>  <CID>  (1) 
118735103.0

>  <ChEMBL ID>  (1) 
nan

>  <InChiKey>  (1) 
BVHVEJVRGYHQTC-XFTNXAEASA-N

>  <InChi>  (1) 
InChI=1S/C34H42N12O5/c1-20(47)41-28-19-46-23(17-40-44-46)18-45(33(28)51)29(14-21-8-3-2-4-9-21)32(50)42-26(12-7-13-38-34(36)37)31(49)43-27(30(35)48)15-22-16-39-25-11-6-5-10-24(22)25/h2-6,8-11,16-17,26-29,39H,7,12-15,18-19H2,1H3,(H2,35,48)(H,41,47)(H,42,50)(H,43,49)(H4,36,37,38)/t26-,27-,28-,29+/m0/s1

>  <IUPAC Name>  (1) 
(2S)-2-[[(2R)-2-[(7S)-7-acetamido-6-oxo-7,8-dihydro-4H-triazolo[1,5-a][1,4]diazepin-5-yl]-3-phenylpropanoyl]amino]-N-[(2S)-1-amino-3-(1H-indol-3-yl)-1-oxopropan-2-yl]-5-(diaminomethylideneamino)pentanamide

$$$$
