
     RDKit          3D

 69 68  0  0  0  0  0  0  0  0999 V2000
    7.1771    3.1717    1.7179 C   0  0  0  0  0  0  0  0  0  0  0  0
    6.9627    1.8024    0.9904 C   0  0  0  0  0  0  0  0  0  0  0  0
    7.2706    0.6936    1.9208 C   0  0  0  0  0  0  0  0  0  0  0  0
    7.2572   -0.6619    1.4146 C   0  0  0  0  0  0  0  0  0  0  0  0
    6.0339   -1.2160    0.8041 C   0  0  0  0  0  0  0  0  0  0  0  0
    5.6228   -0.6205   -0.4719 C   0  0  0  0  0  0  0  0  0  0  0  0
    4.3744   -1.3526   -1.0252 C   0  0  0  0  0  0  0  0  0  0  0  0
    3.2652   -1.2120   -0.0529 C   0  0  0  0  0  0  0  0  0  0  0  0
    1.9718   -1.8940   -0.5509 C   0  0  0  0  0  0  0  0  0  0  0  0
    1.5032   -1.2998   -1.8181 C   0  0  0  0  0  0  0  0  0  0  0  0
    0.2910   -1.8286   -2.4273 C   0  0  0  0  0  0  0  0  0  0  0  0
   -1.0130   -1.5992   -1.7318 C   0  0  0  0  0  0  0  0  0  0  0  0
   -1.2357   -2.0611   -0.3720 C   0  0  0  0  0  0  0  0  0  0  0  0
   -2.6255   -2.0475    0.1594 C   0  0  0  0  0  0  0  0  0  0  0  0
   -3.4204   -0.8094    0.2361 C   0  0  0  0  0  0  0  0  0  0  0  0
   -3.8661   -0.1330   -1.0115 C   0  0  0  0  0  0  0  0  0  0  0  0
   -4.6221    1.0300   -0.7999 O   0  0  0  0  0  0  0  0  0  0  0  0
   -5.7965    0.8836   -0.1382 C   0  0  0  0  0  0  0  0  0  0  0  0
   -5.6512    1.5452    1.2442 C   0  0  0  0  0  0  0  0  0  0  0  0
   -6.7951    1.4290    1.9844 O   0  0  0  0  0  0  0  0  0  0  0  0
   -6.7203    2.1410    3.5049 P   0  0  0  0  0  0  0  0  0  0  0  0
   -6.5212    3.8564    3.2385 S   0  0  0  0  0  0  0  0  0  0  0  0
   -5.4244    1.6360    4.4304 O   0  0  0  0  0  0  0  0  0  0  0  0
   -8.1659    1.9102    4.3180 O   0  0  0  0  0  0  0  0  0  0  0  0
   -7.0281    1.4154   -0.8097 C   0  0  0  0  0  0  0  0  0  0  0  0
   -7.3767    0.9466   -2.0175 O   0  0  0  0  0  0  0  0  0  0  0  0
   -6.5703    1.1371   -3.0927 C   0  0  0  0  0  0  0  0  0  0  0  0
    6.8582    3.9655    1.0397 H   0  0  0  0  0  0  0  0  0  0  0  0
    8.2273    3.1937    2.0322 H   0  0  0  0  0  0  0  0  0  0  0  0
    6.5266    3.1649    2.6145 H   0  0  0  0  0  0  0  0  0  0  0  0
    5.8382    1.8413    0.8864 H   0  0  0  0  0  0  0  0  0  0  0  0
    7.4309    1.7670    0.0300 H   0  0  0  0  0  0  0  0  0  0  0  0
    8.2483    0.9070    2.4661 H   0  0  0  0  0  0  0  0  0  0  0  0
    6.4666    0.7385    2.7504 H   0  0  0  0  0  0  0  0  0  0  0  0
    7.5249   -1.3455    2.3161 H   0  0  0  0  0  0  0  0  0  0  0  0
    8.1681   -0.8713    0.7265 H   0  0  0  0  0  0  0  0  0  0  0  0
    5.1639   -1.1597    1.5400 H   0  0  0  0  0  0  0  0  0  0  0  0
    6.1575   -2.3440    0.6619 H   0  0  0  0  0  0  0  0  0  0  0  0
    5.3284    0.4257   -0.5194 H   0  0  0  0  0  0  0  0  0  0  0  0
    6.3905   -0.8101   -1.2888 H   0  0  0  0  0  0  0  0  0  0  0  0
    4.2137   -0.8928   -2.0098 H   0  0  0  0  0  0  0  0  0  0  0  0
    4.6256   -2.4188   -1.2048 H   0  0  0  0  0  0  0  0  0  0  0  0
    3.0178   -0.1627    0.1759 H   0  0  0  0  0  0  0  0  0  0  0  0
    3.4778   -1.7767    0.8994 H   0  0  0  0  0  0  0  0  0  0  0  0
    2.2640   -2.9870   -0.7154 H   0  0  0  0  0  0  0  0  0  0  0  0
    1.3260   -1.9223    0.3134 H   0  0  0  0  0  0  0  0  0  0  0  0
    2.3396   -1.1787   -2.5676 H   0  0  0  0  0  0  0  0  0  0  0  0
    1.2833   -0.1969   -1.5715 H   0  0  0  0  0  0  0  0  0  0  0  0
    0.2449   -1.4242   -3.4857 H   0  0  0  0  0  0  0  0  0  0  0  0
    0.3318   -2.9502   -2.5998 H   0  0  0  0  0  0  0  0  0  0  0  0
   -1.8134   -1.8105   -2.4642 H   0  0  0  0  0  0  0  0  0  0  0  0
   -1.0956   -0.4223   -1.6443 H   0  0  0  0  0  0  0  0  0  0  0  0
   -0.7613   -3.0296   -0.1061 H   0  0  0  0  0  0  0  0  0  0  0  0
   -0.6672   -1.3349    0.3645 H   0  0  0  0  0  0  0  0  0  0  0  0
   -3.2054   -2.7630   -0.5455 H   0  0  0  0  0  0  0  0  0  0  0  0
   -2.6433   -2.5902    1.1671 H   0  0  0  0  0  0  0  0  0  0  0  0
   -2.8487   -0.0690    0.9085 H   0  0  0  0  0  0  0  0  0  0  0  0
   -4.3409   -0.9936    0.9034 H   0  0  0  0  0  0  0  0  0  0  0  0
   -3.0580    0.1692   -1.6471 H   0  0  0  0  0  0  0  0  0  0  0  0
   -4.5790   -0.8457   -1.5156 H   0  0  0  0  0  0  0  0  0  0  0  0
   -5.9667   -0.1834    0.0963 H   0  0  0  0  0  0  0  0  0  0  0  0
   -4.7262    1.1759    1.6845 H   0  0  0  0  0  0  0  0  0  0  0  0
   -5.4855    2.6535    1.1039 H   0  0  0  0  0  0  0  0  0  0  0  0
   -4.9848    2.3696    4.9265 H   0  0  0  0  0  0  0  0  0  0  0  0
   -7.0313    2.5337   -0.8518 H   0  0  0  0  0  0  0  0  0  0  0  0
   -7.8856    1.1868   -0.1004 H   0  0  0  0  0  0  0  0  0  0  0  0
   -6.3642    2.2095   -3.3227 H   0  0  0  0  0  0  0  0  0  0  0  0
   -7.1949    0.8195   -3.9982 H   0  0  0  0  0  0  0  0  0  0  0  0
   -5.6993    0.4992   -3.0796 H   0  0  0  0  0  0  0  0  0  0  0  0
  1  2  1  0
  2  3  1  0
  3  4  1  0
  4  5  1  0
  5  6  1  0
  6  7  1  0
  7  8  1  0
  8  9  1  0
  9 10  1  0
 10 11  1  0
 11 12  1  0
 12 13  1  0
 13 14  1  0
 14 15  1  0
 15 16  1  0
 16 17  1  0
 17 18  1  0
 18 19  1  0
 19 20  1  0
 20 21  1  0
 21 22  2  0
 21 23  1  0
 21 24  1  0
 18 25  1  0
 25 26  1  0
 26 27  1  0
  1 28  1  0
  1 29  1  0
  1 30  1  0
  2 31  1  0
  2 32  1  0
  3 33  1  0
  3 34  1  0
  4 35  1  0
  4 36  1  0
  5 37  1  0
  5 38  1  0
  6 39  1  0
  6 40  1  0
  7 41  1  0
  7 42  1  0
  8 43  1  0
  8 44  1  0
  9 45  1  0
  9 46  1  0
 10 47  1  0
 10 48  1  0
 11 49  1  0
 11 50  1  0
 12 51  1  0
 12 52  1  0
 13 53  1  0
 13 54  1  0
 14 55  1  0
 14 56  1  0
 15 57  1  0
 15 58  1  0
 16 59  1  0
 16 60  1  0
 18 61  1  0
 19 62  1  0
 19 63  1  0
 23 64  1  0
 25 65  1  0
 25 66  1  0
 27 67  1  0
 27 68  1  0
 27 69  1  0
M  CHG  1  24  -1
M  END
>  <Ligand ID>  (1) 
LIG0000704

>  <Ligand>  (1) 
CHEMBL2335049

>  <SMILES>  (1) 
CCCCCCCCCCCCCCCCOC(COP(=S)(O)[O-])COC

>  <CID>  (1) 
91900068.0

>  <ChEMBL ID>  (1) 
nan

>  <InChiKey>  (1) 
ZQTPCGHWXXJLER-UHFFFAOYSA-M

>  <InChi>  (1) 
InChI=1S/C20H43O5PS/c1-3-4-5-6-7-8-9-10-11-12-13-14-15-16-17-24-20(18-23-2)19-25-26(21,22)27/h20H,3-19H2,1-2H3,(H2,21,22,27)/p-1

>  <IUPAC Name>  (1) 
(2-hexadecoxy-3-methoxypropoxy)-hydroxy-oxido-sulfanylidene-lambda5-phosphane

$$$$
