
     RDKit          3D

 51 54  0  0  0  0  0  0  0  0999 V2000
    0.6021   -2.3802   -1.5909 C   0  0  0  0  0  0  0  0  0  0  0  0
    0.2638   -0.9099   -1.4694 C   0  0  2  0  0  0  0  0  0  0  0  0
    1.4819   -0.0539   -1.2623 C   0  0  0  0  0  0  0  0  0  0  0  0
    1.7201    0.3653    0.1488 C   0  0  1  0  0  0  0  0  0  0  0  0
    0.9936   -0.4976    1.1292 C   0  0  0  0  0  0  0  0  0  0  0  0
   -0.4607   -0.6047    0.8243 C   0  0  0  0  0  0  0  0  0  0  0  0
   -0.8115   -0.6497   -0.5548 N   0  0  0  0  0  0  0  0  0  0  0  0
   -1.5351    0.4902   -1.0080 C   0  0  0  0  0  0  0  0  0  0  0  0
   -2.8273    0.6851   -0.2812 C   0  0  0  0  0  0  0  0  0  0  0  0
   -3.0559    1.3922    0.8416 N   0  0  0  0  0  0  0  0  0  0  0  0
   -4.3443    1.3329    1.1914 C   0  0  0  0  0  0  0  0  0  0  0  0
   -4.9766    0.5399    0.2341 C   0  0  0  0  0  0  0  0  0  0  0  0
   -4.0271    0.1588   -0.6516 N   0  0  0  0  0  0  0  0  0  0  0  0
   -4.3234   -0.6835   -1.7959 C   0  0  0  0  0  0  0  0  0  0  0  0
   -6.3268    0.2821    0.3114 C   0  0  0  0  0  0  0  0  0  0  0  0
   -7.0842    0.8102    1.3492 C   0  0  0  0  0  0  0  0  0  0  0  0
   -6.4100    1.5977    2.2841 C   0  0  0  0  0  0  0  0  0  0  0  0
   -5.0893    1.8407    2.1948 N   0  0  0  0  0  0  0  0  0  0  0  0
    3.1709    0.3657    0.4575 C   0  0  0  0  0  0  0  0  0  0  0  0
    3.8992   -0.8252    0.3724 C   0  0  0  0  0  0  0  0  0  0  0  0
    5.2546   -0.8223    0.6613 C   0  0  0  0  0  0  0  0  0  0  0  0
    5.9254    0.3276    1.0356 C   0  0  0  0  0  0  0  0  0  0  0  0
    5.1993    1.5130    1.1200 C   0  0  0  0  0  0  0  0  0  0  0  0
    3.8504    1.5268    0.8359 C   0  0  0  0  0  0  0  0  0  0  0  0
    7.3880    0.3253    1.3462 C   0  0  0  0  0  0  0  0  0  0  0  0
    7.5845    1.2619    2.3302 F   0  0  0  0  0  0  0  0  0  0  0  0
    7.7746   -0.9148    1.8143 F   0  0  0  0  0  0  0  0  0  0  0  0
    8.0889    0.6941    0.2102 F   0  0  0  0  0  0  0  0  0  0  0  0
    0.3273   -2.9062   -0.6472 H   0  0  0  0  0  0  0  0  0  0  0  0
   -0.0005   -2.8744   -2.3921 H   0  0  0  0  0  0  0  0  0  0  0  0
    1.6575   -2.4715   -1.8508 H   0  0  0  0  0  0  0  0  0  0  0  0
   -0.1288   -0.6253   -2.4904 H   0  0  0  0  0  0  0  0  0  0  0  0
    1.4621    0.8636   -1.9115 H   0  0  0  0  0  0  0  0  0  0  0  0
    2.3725   -0.6265   -1.6246 H   0  0  0  0  0  0  0  0  0  0  0  0
    1.3622    1.4185    0.2850 H   0  0  0  0  0  0  0  0  0  0  0  0
    1.0937   -0.0366    2.1379 H   0  0  0  0  0  0  0  0  0  0  0  0
    1.4349   -1.5149    1.2004 H   0  0  0  0  0  0  0  0  0  0  0  0
   -0.9635    0.3023    1.2585 H   0  0  0  0  0  0  0  0  0  0  0  0
   -0.9036   -1.4588    1.3658 H   0  0  0  0  0  0  0  0  0  0  0  0
   -1.7894    0.3416   -2.0779 H   0  0  0  0  0  0  0  0  0  0  0  0
   -1.0056    1.4592   -0.9341 H   0  0  0  0  0  0  0  0  0  0  0  0
   -5.0267   -0.1839   -2.4914 H   0  0  0  0  0  0  0  0  0  0  0  0
   -3.3920   -0.8893   -2.3570 H   0  0  0  0  0  0  0  0  0  0  0  0
   -4.7179   -1.6738   -1.4932 H   0  0  0  0  0  0  0  0  0  0  0  0
   -6.8270   -0.3274   -0.4196 H   0  0  0  0  0  0  0  0  0  0  0  0
   -8.1357    0.6225    1.4287 H   0  0  0  0  0  0  0  0  0  0  0  0
   -6.9752    2.0226    3.1040 H   0  0  0  0  0  0  0  0  0  0  0  0
    3.4333   -1.7566    0.0857 H   0  0  0  0  0  0  0  0  0  0  0  0
    5.8143   -1.7598    0.5914 H   0  0  0  0  0  0  0  0  0  0  0  0
    5.6993    2.4427    1.4137 H   0  0  0  0  0  0  0  0  0  0  0  0
    3.2840    2.4642    0.9043 H   0  0  0  0  0  0  0  0  0  0  0  0
  1  2  1  0
  2  3  1  0
  3  4  1  0
  4  5  1  0
  5  6  1  0
  6  7  1  0
  7  8  1  0
  8  9  1  0
  9 10  2  0
 10 11  1  0
 11 12  2  0
 12 13  1  0
 13 14  1  0
 12 15  1  0
 15 16  2  0
 16 17  1  0
 17 18  2  0
  4 19  1  0
 19 20  2  0
 20 21  1  0
 21 22  2  0
 22 23  1  0
 23 24  2  0
 22 25  1  0
 25 26  1  0
 25 27  1  0
 25 28  1  0
  7  2  1  0
 13  9  1  0
 24 19  1  0
 18 11  1  0
  1 29  1  0
  1 30  1  0
  1 31  1  0
  2 32  1  6
  3 33  1  0
  3 34  1  0
  4 35  1  6
  5 36  1  0
  5 37  1  0
  6 38  1  0
  6 39  1  0
  8 40  1  0
  8 41  1  0
 14 42  1  0
 14 43  1  0
 14 44  1  0
 15 45  1  0
 16 46  1  0
 17 47  1  0
 20 48  1  0
 21 49  1  0
 23 50  1  0
 24 51  1  0
M  END
>  <Ligand ID>  (1) 
LIG0005231

>  <Ligand>  (1) 
CHEMBL1774224

>  <SMILES>  (1) 
C[C@@H]1C[C@@H](CCN1Cc1nc2c(n1C)cccn2)c1ccc(cc1)C(F)(F)F

>  <CID>  (1) 
51356571.0

>  <ChEMBL ID>  (1) 
nan

>  <InChiKey>  (1) 
BOZVHERQYJVRDG-GDBMZVCRSA-N

>  <InChi>  (1) 
InChI=1S/C21H23F3N4/c1-14-12-16(15-5-7-17(8-6-15)21(22,23)24)9-11-28(14)13-19-26-20-18(27(19)2)4-3-10-25-20/h3-8,10,14,16H,9,11-13H2,1-2H3/t14-,16-/m1/s1

>  <IUPAC Name>  (1) 
1-methyl-2-[[(2R,4R)-2-methyl-4-[4-(trifluoromethyl)phenyl]piperidin-1-yl]methyl]imidazo[4,5-b]pyridine

$$$$
