
     RDKit          3D

 71 73  0  0  0  0  0  0  0  0999 V2000
    5.4421    3.3730   -0.2567 C   0  0  0  0  0  0  0  0  0  0  0  0
    6.1901    2.0609   -0.6199 C   0  0  0  0  0  0  0  0  0  0  0  0
    5.5654    0.9732   -0.3006 O   0  0  0  0  0  0  0  0  0  0  0  0
    4.9449   -0.1076    0.0168 C   0  0  0  0  0  0  0  0  0  0  0  0
    3.5341   -0.0780   -0.2963 C   0  0  0  0  0  0  0  0  0  0  0  0
    2.6987   -1.1109   -0.0394 C   0  0  0  0  0  0  0  0  0  0  0  0
    3.2007   -2.2345    0.5407 C   0  0  0  0  0  0  0  0  0  0  0  0
    4.5294   -2.3060    0.8532 C   0  0  0  0  0  0  0  0  0  0  0  0
    5.4389   -1.2720    0.6106 C   0  0  0  0  0  0  0  0  0  0  0  0
    6.7993   -1.5340    0.9385 C   0  0  0  0  0  0  0  0  0  0  0  0
    7.0688   -2.6483    1.5339 O   0  0  0  0  0  0  0  0  0  0  0  0
    7.9459   -0.7474    0.7173 N   0  0  0  0  0  0  0  0  0  0  0  0
    9.4798   -1.3259    1.2505 S   0  0  0  0  0  0  0  0  0  0  0  0
   10.5343   -0.8034    0.3190 O   0  0  0  0  0  0  0  0  0  0  0  0
    9.4873   -2.8514    1.2538 O   0  0  0  0  0  0  0  0  0  0  0  0
    9.8775   -0.7352    2.8894 C   0  0  0  0  0  0  0  0  0  0  0  0
    1.2733   -1.0479   -0.3495 C   0  0  0  0  0  0  0  0  0  0  0  0
    0.3161   -1.7223    0.3816 C   0  0  0  0  0  0  0  0  0  0  0  0
   -1.0331   -1.6577    0.1055 C   0  0  0  0  0  0  0  0  0  0  0  0
   -1.4558   -0.8803   -0.9554 C   0  0  0  0  0  0  0  0  0  0  0  0
   -0.5159   -0.1877   -1.7124 C   0  0  0  0  0  0  0  0  0  0  0  0
    0.8262   -0.2673   -1.4187 C   0  0  0  0  0  0  0  0  0  0  0  0
   -2.9217   -0.7906   -1.2875 C   0  0  0  0  0  0  0  0  0  0  0  0
   -3.6064    0.2986   -0.5234 C   0  0  0  0  0  0  0  0  0  0  0  0
   -4.9899    0.3553   -0.8750 N   0  0  0  0  0  0  0  0  0  0  0  0
   -5.7747   -0.7776   -0.4575 C   0  0  2  0  0  0  0  0  0  0  0  0
   -7.2254   -0.6186   -0.8523 C   0  0  1  0  0  0  0  0  0  0  0  0
   -7.8624    0.4330   -0.0608 C   0  0  0  0  0  0  0  0  0  0  0  0
   -7.7562    1.7871   -0.3672 C   0  0  0  0  0  0  0  0  0  0  0  0
   -8.3944    2.7418    0.4321 C   0  0  0  0  0  0  0  0  0  0  0  0
   -9.1414    2.3888    1.5367 C   0  0  0  0  0  0  0  0  0  0  0  0
   -9.2460    1.0435    1.8393 C   0  0  0  0  0  0  0  0  0  0  0  0
   -8.6239    0.0877    1.0628 C   0  0  0  0  0  0  0  0  0  0  0  0
   -9.9804    0.5840    2.9378 O   0  0  0  0  0  0  0  0  0  0  0  0
   -7.3822   -0.4859   -2.2301 O   0  0  0  0  0  0  0  0  0  0  0  0
   -5.7401   -0.9586    1.0513 C   0  0  0  0  0  0  0  0  0  0  0  0
    6.3681    2.1587   -2.1510 C   0  0  0  0  0  0  0  0  0  0  0  0
    4.4575    3.3583   -0.7565 H   0  0  0  0  0  0  0  0  0  0  0  0
    5.3711    3.4797    0.8251 H   0  0  0  0  0  0  0  0  0  0  0  0
    6.0590    4.1651   -0.6924 H   0  0  0  0  0  0  0  0  0  0  0  0
    7.2145    2.2037   -0.1872 H   0  0  0  0  0  0  0  0  0  0  0  0
    3.1194    0.8090   -0.7575 H   0  0  0  0  0  0  0  0  0  0  0  0
    2.5445   -3.0565    0.7454 H   0  0  0  0  0  0  0  0  0  0  0  0
    4.8544   -3.2385    1.3162 H   0  0  0  0  0  0  0  0  0  0  0  0
    7.8690    0.1333    0.2413 H   0  0  0  0  0  0  0  0  0  0  0  0
    9.3258   -1.2620    3.6835 H   0  0  0  0  0  0  0  0  0  0  0  0
   10.9830   -0.7565    3.0553 H   0  0  0  0  0  0  0  0  0  0  0  0
    9.5944    0.3590    2.8992 H   0  0  0  0  0  0  0  0  0  0  0  0
    0.6622   -2.3202    1.1996 H   0  0  0  0  0  0  0  0  0  0  0  0
   -1.7318   -2.2193    0.7283 H   0  0  0  0  0  0  0  0  0  0  0  0
   -0.8150    0.4234   -2.5407 H   0  0  0  0  0  0  0  0  0  0  0  0
    1.5546    0.2746   -2.0138 H   0  0  0  0  0  0  0  0  0  0  0  0
   -3.0058   -0.5658   -2.3698 H   0  0  0  0  0  0  0  0  0  0  0  0
   -3.3335   -1.7999   -1.1101 H   0  0  0  0  0  0  0  0  0  0  0  0
   -3.1440    1.2610   -0.8184 H   0  0  0  0  0  0  0  0  0  0  0  0
   -3.4409    0.1909    0.5740 H   0  0  0  0  0  0  0  0  0  0  0  0
   -5.0457    0.4386   -1.9106 H   0  0  0  0  0  0  0  0  0  0  0  0
   -5.3558   -1.7240   -0.8831 H   0  0  0  0  0  0  0  0  0  0  0  0
   -7.7022   -1.6106   -0.5921 H   0  0  0  0  0  0  0  0  0  0  0  0
   -7.1838    2.1011   -1.2179 H   0  0  0  0  0  0  0  0  0  0  0  0
   -8.3272    3.8027    0.2129 H   0  0  0  0  0  0  0  0  0  0  0  0
   -9.6479    3.0869    2.1788 H   0  0  0  0  0  0  0  0  0  0  0  0
   -8.7147   -0.9820    1.3120 H   0  0  0  0  0  0  0  0  0  0  0  0
  -10.9214    0.2333    2.7446 H   0  0  0  0  0  0  0  0  0  0  0  0
   -7.1626   -1.2942   -2.7214 H   0  0  0  0  0  0  0  0  0  0  0  0
   -6.3340   -1.8824    1.2983 H   0  0  0  0  0  0  0  0  0  0  0  0
   -6.2134   -0.1059    1.5635 H   0  0  0  0  0  0  0  0  0  0  0  0
   -4.7156   -1.1748    1.4315 H   0  0  0  0  0  0  0  0  0  0  0  0
    7.0046    3.0584   -2.3637 H   0  0  0  0  0  0  0  0  0  0  0  0
    5.3770    2.2090   -2.5971 H   0  0  0  0  0  0  0  0  0  0  0  0
    6.9331    1.2683   -2.4459 H   0  0  0  0  0  0  0  0  0  0  0  0
  1  2  1  0
  2  3  1  0
  3  4  1  0
  4  5  2  0
  5  6  1  0
  6  7  2  0
  7  8  1  0
  8  9  2  0
  9 10  1  0
 10 11  2  0
 10 12  1  0
 12 13  1  0
 13 14  2  0
 13 15  2  0
 13 16  1  0
  6 17  1  0
 17 18  2  0
 18 19  1  0
 19 20  2  0
 20 21  1  0
 21 22  2  0
 20 23  1  0
 23 24  1  0
 24 25  1  0
 25 26  1  0
 26 27  1  0
 27 28  1  0
 28 29  2  0
 29 30  1  0
 30 31  2  0
 31 32  1  0
 32 33  2  0
 32 34  1  0
 27 35  1  0
 26 36  1  0
  2 37  1  0
  9  4  1  0
 22 17  1  0
 33 28  1  0
  1 38  1  0
  1 39  1  0
  1 40  1  0
  2 41  1  0
  5 42  1  0
  7 43  1  0
  8 44  1  0
 12 45  1  0
 16 46  1  0
 16 47  1  0
 16 48  1  0
 18 49  1  0
 19 50  1  0
 21 51  1  0
 22 52  1  0
 23 53  1  0
 23 54  1  0
 24 55  1  0
 24 56  1  0
 25 57  1  0
 26 58  1  6
 27 59  1  1
 29 60  1  0
 30 61  1  0
 31 62  1  0
 33 63  1  0
 34 64  1  0
 35 65  1  0
 36 66  1  0
 36 67  1  0
 36 68  1  0
 37 69  1  0
 37 70  1  0
 37 71  1  0
M  END
>  <Ligand ID>  (1) 
LIG0005155

>  <Ligand>  (1) 
CHEMBL550871

>  <SMILES>  (1) 
CC(Oc1cc(ccc1C(=O)NS(=O)(=O)C)c1ccc(cc1)CCN[C@H]([C@@H](c1cccc(c1)O)O)C)C

>  <CID>  (1) 
45271036.0

>  <ChEMBL ID>  (1) 
nan

>  <InChiKey>  (1) 
WDVIPJYFOMVESE-PPHZAIPVSA-N

>  <InChi>  (1) 
InChI=1S/C28H34N2O6S/c1-18(2)36-26-17-22(12-13-25(26)28(33)30-37(4,34)35)21-10-8-20(9-11-21)14-15-29-19(3)27(32)23-6-5-7-24(31)16-23/h5-13,16-19,27,29,31-32H,14-15H2,1-4H3,(H,30,33)/t19-,27-/m0/s1

>  <IUPAC Name>  (1) 
4-[4-[2-[[(1R,2S)-1-hydroxy-1-(3-hydroxyphenyl)propan-2-yl]amino]ethyl]phenyl]-N-methylsulfonyl-2-propan-2-yloxybenzamide

$$$$
