
     RDKit          3D

140142  0  0  0  0  0  0  0  0999 V2000
   -7.1890   -3.1710    1.5155 C   0  0  0  0  0  0  0  0  0  0  0  0
   -8.0202   -1.9762    1.2212 C   0  0  0  0  0  0  0  0  0  0  0  0
   -7.4072   -0.8826    0.4289 C   0  0  1  0  0  0  0  0  0  0  0  0
   -6.2095   -0.2029    1.0381 C   0  0  2  0  0  0  0  0  0  0  0  0
   -5.7606    0.8421    0.0921 N   0  0  0  0  0  0  0  0  0  0  0  0
   -6.4812    2.0996   -0.0236 C   0  0  0  0  0  0  0  0  0  0  0  0
   -7.5579    2.1203    0.5814 O   0  0  0  0  0  0  0  0  0  0  0  0
   -5.9370    3.2237   -0.8247 C   0  0  1  0  0  0  0  0  0  0  0  0
   -4.4773    3.1560   -0.7970 N   0  0  0  0  0  0  0  0  0  0  0  0
   -3.6817    4.3776   -0.8072 C   0  0  0  0  0  0  0  0  0  0  0  0
   -4.3227    5.3877   -1.0989 O   0  0  0  0  0  0  0  0  0  0  0  0
   -2.2657    4.2484   -0.4901 C   0  0  0  0  0  0  0  0  0  0  0  0
   -1.3165    5.2568   -1.0320 C   0  0  0  0  0  0  0  0  0  0  0  0
    0.2081    5.0937   -0.0348 S   0  0  0  0  0  0  0  0  0  0  0  0
    0.8978    3.4531   -0.0015 C   0  0  0  0  0  0  0  0  0  0  0  0
    1.4713    3.0349   -1.3068 C   0  0  0  0  0  0  0  0  0  0  0  0
    2.1080    1.6548   -1.2049 C   0  0  2  0  0  0  0  0  0  0  0  0
    0.9605    0.7229   -1.0178 N   0  0  0  0  0  0  0  0  0  0  0  0
    0.7646   -0.3875   -1.8809 C   0  0  0  0  0  0  0  0  0  0  0  0
    1.6745   -0.4998   -2.7542 O   0  0  0  0  0  0  0  0  0  0  0  0
   -0.3064   -1.3712   -1.8817 C   0  0  1  0  0  0  0  0  0  0  0  0
   -1.4251   -1.1926   -0.9746 N   0  0  0  0  0  0  0  0  0  0  0  0
   -1.5915   -1.9985    0.2230 C   0  0  0  0  0  0  0  0  0  0  0  0
   -0.5666   -2.6578    0.4853 O   0  0  0  0  0  0  0  0  0  0  0  0
   -2.7741   -2.0488    1.0436 C   0  0  1  0  0  0  0  0  0  0  0  0
   -3.9179   -1.2593    0.5458 N   0  0  0  0  0  0  0  0  0  0  0  0
   -5.0629   -1.0031    1.3830 C   0  0  0  0  0  0  0  0  0  0  0  0
   -4.9982   -1.5700    2.4947 O   0  0  0  0  0  0  0  0  0  0  0  0
   -3.2778   -3.5254    1.1118 C   0  0  0  0  0  0  0  0  0  0  0  0
   -2.2649   -4.4638    1.7102 C   0  0  0  0  0  0  0  0  0  0  0  0
   -2.8468   -5.8701    1.7567 C   0  0  0  0  0  0  0  0  0  0  0  0
   -4.0260   -6.0824    1.3379 O   0  0  0  0  0  0  0  0  0  0  0  0
   -1.9967   -6.8670    2.2818 N   0  0  0  0  0  0  0  0  0  0  0  0
   -0.8460   -1.6159   -3.2926 C   0  0  0  0  0  0  0  0  0  0  0  0
   -1.9354   -2.6416   -3.1605 C   0  0  0  0  0  0  0  0  0  0  0  0
   -2.0326   -3.3567   -2.1090 O   0  0  0  0  0  0  0  0  0  0  0  0
   -2.9136   -2.8686   -4.1756 N   0  0  0  0  0  0  0  0  0  0  0  0
    2.8963    1.5489    0.0549 C   0  0  0  0  0  0  0  0  0  0  0  0
    2.3803    0.6941    0.8884 O   0  0  0  0  0  0  0  0  0  0  0  0
    4.0535    2.2258    0.4314 N   0  0  0  0  0  0  0  0  0  0  0  0
    4.8465    3.1200   -0.3267 C   0  0  0  0  0  0  0  0  0  0  0  0
    6.1625    2.7073   -0.8188 C   0  0  0  0  0  0  0  0  0  0  0  0
    6.3955    1.9839   -1.9692 C   0  0  0  0  0  0  0  0  0  0  0  0
    7.6960    1.6986   -2.3995 C   0  0  0  0  0  0  0  0  0  0  0  0
    8.7361    2.1777   -1.6132 C   0  0  0  0  0  0  0  0  0  0  0  0
    8.5666    2.8958   -0.4658 C   0  0  0  0  0  0  0  0  0  0  0  0
    7.2703    3.1542   -0.0774 C   0  0  0  0  0  0  0  0  0  0  0  0
   10.0267    1.9156   -1.9921 F   0  0  0  0  0  0  0  0  0  0  0  0
    4.4551    2.0426    1.8499 C   0  0  0  0  0  0  0  0  0  0  0  0
    5.2470    0.8433    2.0766 C   0  0  0  0  0  0  0  0  0  0  0  0
    5.5920    0.6545    3.3108 O   0  0  0  0  0  0  0  0  0  0  0  0
    5.6808   -0.1284    1.1730 N   0  0  0  0  0  0  0  0  0  0  0  0
    6.4639   -1.3055    1.6360 C   0  0  2  0  0  0  0  0  0  0  0  0
    7.8808   -0.9730    1.5314 C   0  0  0  0  0  0  0  0  0  0  0  0
    8.1559    0.1571    0.9927 O   0  0  0  0  0  0  0  0  0  0  0  0
    8.9456   -1.8202    1.9910 N   0  0  0  0  0  0  0  0  0  0  0  0
   10.3178   -1.3938    1.8672 C   0  0  0  0  0  0  0  0  0  0  0  0
   10.5701   -0.2296    2.7371 C   0  0  0  0  0  0  0  0  0  0  0  0
   11.7419    0.2748    2.6525 O   0  0  0  0  0  0  0  0  0  0  0  0
    9.6667    0.3622    3.6396 N   0  0  0  0  0  0  0  0  0  0  0  0
    5.8890   -2.4534    0.9787 C   0  0  0  0  0  0  0  0  0  0  0  0
    6.3619   -3.8320    1.1549 C   0  0  0  0  0  0  0  0  0  0  0  0
    6.3030   -4.3283    2.5828 C   0  0  0  0  0  0  0  0  0  0  0  0
    7.6027   -4.2492    0.4178 C   0  0  0  0  0  0  0  0  0  0  0  0
   -6.4888    3.2072   -2.2454 C   0  0  0  0  0  0  0  0  0  0  0  0
   -7.9803    3.3345   -2.0775 C   0  0  0  0  0  0  0  0  0  0  0  0
   -8.7816    2.2018   -2.0078 C   0  0  0  0  0  0  0  0  0  0  0  0
  -10.1442    2.3886   -1.8503 C   0  0  0  0  0  0  0  0  0  0  0  0
  -10.7080    3.6413   -1.7644 C   0  0  0  0  0  0  0  0  0  0  0  0
   -9.8902    4.7762   -1.8354 C   0  0  0  0  0  0  0  0  0  0  0  0
   -8.5200    4.6179   -1.9935 C   0  0  0  0  0  0  0  0  0  0  0  0
   -7.1988   -1.2608   -1.0125 C   0  0  0  0  0  0  0  0  0  0  0  0
   -6.3340   -3.2743    0.8316 H   0  0  0  0  0  0  0  0  0  0  0  0
   -7.8432   -4.0651    1.2449 H   0  0  0  0  0  0  0  0  0  0  0  0
   -7.0097   -3.3047    2.5756 H   0  0  0  0  0  0  0  0  0  0  0  0
   -9.0385   -2.2486    0.8173 H   0  0  0  0  0  0  0  0  0  0  0  0
   -8.2892   -1.5220    2.2315 H   0  0  0  0  0  0  0  0  0  0  0  0
   -8.2041   -0.0684    0.3917 H   0  0  0  0  0  0  0  0  0  0  0  0
   -6.6373    0.2653    1.9508 H   0  0  0  0  0  0  0  0  0  0  0  0
   -4.9674    0.7568   -0.5245 H   0  0  0  0  0  0  0  0  0  0  0  0
   -6.2175    4.1857   -0.3899 H   0  0  0  0  0  0  0  0  0  0  0  0
   -3.9181    2.3137   -0.7867 H   0  0  0  0  0  0  0  0  0  0  0  0
   -1.8616    3.2284   -0.7775 H   0  0  0  0  0  0  0  0  0  0  0  0
   -2.0968    4.2357    0.6381 H   0  0  0  0  0  0  0  0  0  0  0  0
   -1.1242    5.2128   -2.1058 H   0  0  0  0  0  0  0  0  0  0  0  0
   -1.7306    6.2706   -0.7785 H   0  0  0  0  0  0  0  0  0  0  0  0
    0.0903    2.7275    0.2684 H   0  0  0  0  0  0  0  0  0  0  0  0
    1.6812    3.4581    0.8131 H   0  0  0  0  0  0  0  0  0  0  0  0
    2.0932    3.8042   -1.7519 H   0  0  0  0  0  0  0  0  0  0  0  0
    0.5938    2.9257   -2.0127 H   0  0  0  0  0  0  0  0  0  0  0  0
    2.6776    1.4376   -2.0785 H   0  0  0  0  0  0  0  0  0  0  0  0
    0.2851    0.8188   -0.2681 H   0  0  0  0  0  0  0  0  0  0  0  0
    0.1822   -2.3676   -1.5849 H   0  0  0  0  0  0  0  0  0  0  0  0
   -2.1604   -0.4968   -1.0993 H   0  0  0  0  0  0  0  0  0  0  0  0
   -2.5579   -1.8582    2.1103 H   0  0  0  0  0  0  0  0  0  0  0  0
   -3.9893   -0.8865   -0.3950 H   0  0  0  0  0  0  0  0  0  0  0  0
   -4.1911   -3.5622    1.7320 H   0  0  0  0  0  0  0  0  0  0  0  0
   -3.4715   -3.8469    0.0745 H   0  0  0  0  0  0  0  0  0  0  0  0
   -2.0668   -4.2180    2.7730 H   0  0  0  0  0  0  0  0  0  0  0  0
   -1.3447   -4.5889    1.1358 H   0  0  0  0  0  0  0  0  0  0  0  0
   -1.6489   -7.6869    1.7561 H   0  0  0  0  0  0  0  0  0  0  0  0
   -1.6950   -6.7584    3.2775 H   0  0  0  0  0  0  0  0  0  0  0  0
   -1.1731   -0.6720   -3.7065 H   0  0  0  0  0  0  0  0  0  0  0  0
   -0.0142   -2.0930   -3.8550 H   0  0  0  0  0  0  0  0  0  0  0  0
   -3.5166   -3.7338   -4.1613 H   0  0  0  0  0  0  0  0  0  0  0  0
   -3.0835   -2.2072   -4.9648 H   0  0  0  0  0  0  0  0  0  0  0  0
    4.2815    3.4358   -1.2656 H   0  0  0  0  0  0  0  0  0  0  0  0
    4.9782    4.0494    0.3181 H   0  0  0  0  0  0  0  0  0  0  0  0
    5.5447    1.6202   -2.5536 H   0  0  0  0  0  0  0  0  0  0  0  0
    7.8970    1.1365   -3.2849 H   0  0  0  0  0  0  0  0  0  0  0  0
    9.4392    3.2369    0.0983 H   0  0  0  0  0  0  0  0  0  0  0  0
    7.0927    3.7250    0.8322 H   0  0  0  0  0  0  0  0  0  0  0  0
    3.5332    1.9668    2.5061 H   0  0  0  0  0  0  0  0  0  0  0  0
    4.9647    2.9725    2.2095 H   0  0  0  0  0  0  0  0  0  0  0  0
    5.4292   -0.0099    0.1735 H   0  0  0  0  0  0  0  0  0  0  0  0
    6.2519   -1.3264    2.7444 H   0  0  0  0  0  0  0  0  0  0  0  0
    8.7463   -2.7368    2.4355 H   0  0  0  0  0  0  0  0  0  0  0  0
   11.0285   -2.2320    2.0436 H   0  0  0  0  0  0  0  0  0  0  0  0
   10.5178   -1.0615    0.7925 H   0  0  0  0  0  0  0  0  0  0  0  0
   10.0535    0.5272    4.6218 H   0  0  0  0  0  0  0  0  0  0  0  0
    8.7029    0.6605    3.4946 H   0  0  0  0  0  0  0  0  0  0  0  0
    4.7599   -2.4582    1.1899 H   0  0  0  0  0  0  0  0  0  0  0  0
    5.8725   -2.2748   -0.1536 H   0  0  0  0  0  0  0  0  0  0  0  0
    5.5447   -4.4646    0.6467 H   0  0  0  0  0  0  0  0  0  0  0  0
    5.6720   -3.6771    3.2204 H   0  0  0  0  0  0  0  0  0  0  0  0
    5.7989   -5.3405    2.6732 H   0  0  0  0  0  0  0  0  0  0  0  0
    7.3187   -4.5336    2.9911 H   0  0  0  0  0  0  0  0  0  0  0  0
    8.0068   -3.3939   -0.1601 H   0  0  0  0  0  0  0  0  0  0  0  0
    8.3620   -4.7061    1.0902 H   0  0  0  0  0  0  0  0  0  0  0  0
    7.3457   -5.0432   -0.3090 H   0  0  0  0  0  0  0  0  0  0  0  0
   -6.1541    4.0371   -2.8610 H   0  0  0  0  0  0  0  0  0  0  0  0
   -6.3403    2.2091   -2.6837 H   0  0  0  0  0  0  0  0  0  0  0  0
   -8.3486    1.2040   -2.0719 H   0  0  0  0  0  0  0  0  0  0  0  0
  -10.8407    1.5529   -1.7787 H   0  0  0  0  0  0  0  0  0  0  0  0
  -11.7728    3.7467   -1.6450 H   0  0  0  0  0  0  0  0  0  0  0  0
  -10.3587    5.7651   -1.7610 H   0  0  0  0  0  0  0  0  0  0  0  0
   -7.8852    5.4755   -2.0529 H   0  0  0  0  0  0  0  0  0  0  0  0
   -8.2378   -1.3415   -1.4375 H   0  0  0  0  0  0  0  0  0  0  0  0
   -6.7117   -0.4501   -1.5428 H   0  0  0  0  0  0  0  0  0  0  0  0
   -6.7795   -2.2599   -1.1770 H   0  0  0  0  0  0  0  0  0  0  0  0
  1  2  1  0
  2  3  1  0
  3  4  1  0
  4  5  1  0
  5  6  1  0
  6  7  2  0
  6  8  1  0
  8  9  1  0
  9 10  1  0
 10 11  2  0
 10 12  1  0
 12 13  1  0
 13 14  1  0
 14 15  1  0
 15 16  1  0
 16 17  1  0
 17 18  1  0
 18 19  1  0
 19 20  2  0
 19 21  1  0
 21 22  1  0
 22 23  1  0
 23 24  2  0
 23 25  1  0
 25 26  1  0
 26 27  1  0
 27 28  2  0
 25 29  1  0
 29 30  1  0
 30 31  1  0
 31 32  2  0
 31 33  1  0
 21 34  1  0
 34 35  1  0
 35 36  2  0
 35 37  1  0
 17 38  1  0
 38 39  2  0
 38 40  1  0
 40 41  1  0
 41 42  1  0
 42 43  2  0
 43 44  1  0
 44 45  2  0
 45 46  1  0
 46 47  2  0
 45 48  1  0
 40 49  1  0
 49 50  1  0
 50 51  2  0
 50 52  1  0
 52 53  1  0
 53 54  1  0
 54 55  2  0
 54 56  1  0
 56 57  1  0
 57 58  1  0
 58 59  2  0
 58 60  1  0
 53 61  1  0
 61 62  1  0
 62 63  1  0
 62 64  1  0
  8 65  1  0
 65 66  1  0
 66 67  2  0
 67 68  1  0
 68 69  2  0
 69 70  1  0
 70 71  2  0
  3 72  1  0
 27  4  1  0
 47 42  1  0
 71 66  1  0
  1 73  1  0
  1 74  1  0
  1 75  1  0
  2 76  1  0
  2 77  1  0
  3 78  1  6
  4 79  1  1
  5 80  1  0
  8 81  1  1
  9 82  1  0
 12 83  1  0
 12 84  1  0
 13 85  1  0
 13 86  1  0
 15 87  1  0
 15 88  1  0
 16 89  1  0
 16 90  1  0
 17 91  1  6
 18 92  1  0
 21 93  1  1
 22 94  1  0
 25 95  1  1
 26 96  1  0
 29 97  1  0
 29 98  1  0
 30 99  1  0
 30100  1  0
 33101  1  0
 33102  1  0
 34103  1  0
 34104  1  0
 37105  1  0
 37106  1  0
 41107  1  0
 41108  1  0
 43109  1  0
 44110  1  0
 46111  1  0
 47112  1  0
 49113  1  0
 49114  1  0
 52115  1  0
 53116  1  1
 56117  1  0
 57118  1  0
 57119  1  0
 60120  1  0
 60121  1  0
 61122  1  0
 61123  1  0
 62124  1  0
 63125  1  0
 63126  1  0
 63127  1  0
 64128  1  0
 64129  1  0
 64130  1  0
 65131  1  0
 65132  1  0
 67133  1  0
 68134  1  0
 69135  1  0
 70136  1  0
 71137  1  0
 72138  1  0
 72139  1  0
 72140  1  0
M  END
>  <Ligand ID>  (1) 
LIG0001561

>  <Ligand>  (1) 
CHEMBL3354596

>  <SMILES>  (1) 
CC[C@@H]([C@@H]1NC(=O)[C@@H](NC(=O)CCSCC[C@H](NC(=O)[C@@H](NC(=O)[C@@H](NC1=O)CCC(=O)N)CC(=O)N)C(=O)N(Cc1ccc(cc1)F)CC(=O)N[C@H](C(=O)NCC(=O)N)CC(C)C)Cc1ccccc1)C

>  <CID>  (1) 
118720285.0

>  <ChEMBL ID>  (1) 
nan

>  <InChiKey>  (1) 
QFDAUZOSXCUKEG-OTQBRQNKSA-N

>  <InChi>  (1) 
InChI=1S/C48H68FN11O11S/c1-5-28(4)42-47(70)56-32(15-16-37(50)61)44(67)58-36(23-38(51)62)45(68)57-33(17-19-72-20-18-40(64)54-35(46(69)59-42)22-29-9-7-6-8-10-29)48(71)60(25-30-11-13-31(49)14-12-30)26-41(65)55-34(21-27(2)3)43(66)53-24-39(52)63/h6-14,27-28,32-36,42H,5,15-26H2,1-4H3,(H2,50,61)(H2,51,62)(H2,52,63)(H,53,66)(H,54,64)(H,55,65)(H,56,70)(H,57,68)(H,58,67)(H,59,69)/t28-,32-,33-,34-,35-,36-,42-/m0/s1

>  <IUPAC Name>  (1) 
(4S,7S,10S,13S,16S)-7-(2-amino-2-oxoethyl)-N-[2-[[(2S)-1-[(2-amino-2-oxoethyl)amino]-4-methyl-1-oxopentan-2-yl]amino]-2-oxoethyl]-10-(3-amino-3-oxopropyl)-16-benzyl-13-[(2S)-butan-2-yl]-N-[(4-fluorophenyl)methyl]-6,9,12,15,18-pentaoxo-1-thia-5,8,11,14,17-pentazacycloicosane-4-carboxamide

$$$$
