
     RDKit          3D

 64 67  0  0  0  0  0  0  0  0999 V2000
   -3.9609    0.3084   -3.1909 C   0  0  0  0  0  0  0  0  0  0  0  0
   -3.1714   -0.2285   -2.1452 O   0  0  0  0  0  0  0  0  0  0  0  0
   -3.7177   -1.2421   -1.3682 C   0  0  0  0  0  0  0  0  0  0  0  0
   -4.9868   -1.7450   -1.5691 C   0  0  0  0  0  0  0  0  0  0  0  0
   -5.4241   -2.7664   -0.7196 C   0  0  0  0  0  0  0  0  0  0  0  0
   -4.6190   -3.2580    0.2860 C   0  0  0  0  0  0  0  0  0  0  0  0
   -3.3433   -2.7542    0.4898 C   0  0  0  0  0  0  0  0  0  0  0  0
   -2.9000   -1.7353   -0.3535 C   0  0  0  0  0  0  0  0  0  0  0  0
   -1.5520   -1.2142   -0.1260 C   0  0  0  0  0  0  0  0  0  0  0  0
   -0.4107   -1.6648   -0.6815 N   0  0  0  0  0  0  0  0  0  0  0  0
    0.6350   -0.9319   -0.2293 C   0  0  0  0  0  0  0  0  0  0  0  0
    0.1272    0.0106    0.6403 C   0  0  0  0  0  0  0  0  0  0  0  0
   -1.2045   -0.1837    0.6844 N   0  0  0  0  0  0  0  0  0  0  0  0
   -2.0741    0.6130    1.4881 C   0  0  0  0  0  0  0  0  0  0  0  0
   -2.4869    0.2211    2.7455 C   0  0  0  0  0  0  0  0  0  0  0  0
   -3.3262    1.0301    3.4757 C   0  0  0  0  0  0  0  0  0  0  0  0
   -3.7766    2.2173    3.0107 N   0  0  0  0  0  0  0  0  0  0  0  0
   -3.3920    2.6273    1.7880 C   0  0  0  0  0  0  0  0  0  0  0  0
   -2.5427    1.8419    1.0114 C   0  0  0  0  0  0  0  0  0  0  0  0
   -2.1319    2.2361   -0.2447 C   0  0  0  0  0  0  0  0  0  0  0  0
   -2.5749    3.4559   -0.7614 C   0  0  0  0  0  0  0  0  0  0  0  0
   -3.4247    4.2583   -0.0030 C   0  0  0  0  0  0  0  0  0  0  0  0
   -3.8273    3.8463    1.2573 C   0  0  0  0  0  0  0  0  0  0  0  0
   -3.9703    5.7982   -0.6819 Cl  0  0  0  0  0  0  0  0  0  0  0  0
    2.0298   -1.1529   -0.6317 C   0  0  0  0  0  0  0  0  0  0  0  0
    2.2614   -2.0779   -1.4438 O   0  0  0  0  0  0  0  0  0  0  0  0
    3.0509   -0.3221   -0.0935 N   0  0  0  0  0  0  0  0  0  0  0  0
    4.4838   -0.5594   -0.5155 C   0  0  2  0  0  0  0  0  0  0  0  0
    5.1476   -0.9569    0.7314 C   0  0  0  0  0  0  0  0  0  0  0  0
    4.4408   -0.8651    1.7996 O   0  0  0  0  0  0  0  0  0  0  0  0
    6.4252   -1.4180    0.8979 O   0  0  0  0  0  0  0  0  0  0  0  0
    5.0012    0.7010   -1.0705 C   0  0  0  0  0  0  0  0  0  0  0  0
    6.3565    0.8411   -1.6022 C   0  0  0  0  0  0  0  0  0  0  0  0
    6.4410    2.3180   -2.1049 C   0  0  0  0  0  0  0  0  0  0  0  0
    7.5273    0.6899   -0.7080 C   0  0  0  0  0  0  0  0  0  0  0  0
   -2.5015   -3.2214    1.4905 O   0  0  0  0  0  0  0  0  0  0  0  0
   -2.9904   -4.2584    2.3267 C   0  0  0  0  0  0  0  0  0  0  0  0
   -4.4460   -0.4782   -3.8198 H   0  0  0  0  0  0  0  0  0  0  0  0
   -4.8070    0.9355   -2.8081 H   0  0  0  0  0  0  0  0  0  0  0  0
   -3.3528    0.9837   -3.8402 H   0  0  0  0  0  0  0  0  0  0  0  0
   -5.5981   -1.3494   -2.3570 H   0  0  0  0  0  0  0  0  0  0  0  0
   -6.4324   -3.1392   -0.9082 H   0  0  0  0  0  0  0  0  0  0  0  0
   -4.9889   -4.0538    0.9308 H   0  0  0  0  0  0  0  0  0  0  0  0
    0.7316    0.7412    1.1593 H   0  0  0  0  0  0  0  0  0  0  0  0
   -2.1228   -0.7404    3.1235 H   0  0  0  0  0  0  0  0  0  0  0  0
   -3.6369    0.6900    4.4734 H   0  0  0  0  0  0  0  0  0  0  0  0
   -1.4706    1.6174   -0.8411 H   0  0  0  0  0  0  0  0  0  0  0  0
   -2.2621    3.7898   -1.7563 H   0  0  0  0  0  0  0  0  0  0  0  0
   -4.4802    4.4710    1.8304 H   0  0  0  0  0  0  0  0  0  0  0  0
    2.8598    0.4481    0.5826 H   0  0  0  0  0  0  0  0  0  0  0  0
    4.3975   -1.3950   -1.2034 H   0  0  0  0  0  0  0  0  0  0  0  0
    6.6552   -2.1287    1.5821 H   0  0  0  0  0  0  0  0  0  0  0  0
    4.7802    1.5692   -0.3537 H   0  0  0  0  0  0  0  0  0  0  0  0
    4.2947    0.9737   -1.9306 H   0  0  0  0  0  0  0  0  0  0  0  0
    6.5041    0.2133   -2.5026 H   0  0  0  0  0  0  0  0  0  0  0  0
    6.6692    2.9008   -1.1888 H   0  0  0  0  0  0  0  0  0  0  0  0
    5.4919    2.6231   -2.5695 H   0  0  0  0  0  0  0  0  0  0  0  0
    7.2381    2.3279   -2.8642 H   0  0  0  0  0  0  0  0  0  0  0  0
    8.3207    1.4363   -1.0691 H   0  0  0  0  0  0  0  0  0  0  0  0
    8.0813   -0.2701   -0.8048 H   0  0  0  0  0  0  0  0  0  0  0  0
    7.3673    1.0169    0.3378 H   0  0  0  0  0  0  0  0  0  0  0  0
   -3.9977   -3.9894    2.7320 H   0  0  0  0  0  0  0  0  0  0  0  0
   -2.3134   -4.4241    3.2013 H   0  0  0  0  0  0  0  0  0  0  0  0
   -3.1007   -5.2278    1.8246 H   0  0  0  0  0  0  0  0  0  0  0  0
  1  2  1  0
  2  3  1  0
  3  4  2  0
  4  5  1  0
  5  6  2  0
  6  7  1  0
  7  8  2  0
  8  9  1  0
  9 10  2  0
 10 11  1  0
 11 12  2  0
 12 13  1  0
 13 14  1  0
 14 15  2  0
 15 16  1  0
 16 17  2  0
 17 18  1  0
 18 19  2  0
 19 20  1  0
 20 21  2  0
 21 22  1  0
 22 23  2  0
 22 24  1  0
 11 25  1  0
 25 26  2  0
 25 27  1  0
 27 28  1  0
 28 29  1  0
 29 30  2  0
 29 31  1  0
 28 32  1  0
 32 33  1  0
 33 34  1  0
 33 35  1  0
  7 36  1  0
 36 37  1  0
  8  3  1  0
 13  9  1  0
 19 14  1  0
 23 18  1  0
  1 38  1  0
  1 39  1  0
  1 40  1  0
  4 41  1  0
  5 42  1  0
  6 43  1  0
 12 44  1  0
 15 45  1  0
 16 46  1  0
 20 47  1  0
 21 48  1  0
 23 49  1  0
 27 50  1  0
 28 51  1  6
 31 52  1  0
 32 53  1  0
 32 54  1  0
 33 55  1  0
 34 56  1  0
 34 57  1  0
 34 58  1  0
 35 59  1  0
 35 60  1  0
 35 61  1  0
 37 62  1  0
 37 63  1  0
 37 64  1  0
M  END
>  <Ligand ID>  (1) 
LIG0003448

>  <Ligand>  (1) 
CHEMBL3099773

>  <SMILES>  (1) 
COc1cccc(c1c1nc(cn1c1ccnc2c1ccc(c2)Cl)C(=O)N[C@H](C(=O)O)CC(C)C)OC

>  <CID>  (1) 
49837912.0

>  <ChEMBL ID>  (1) 
nan

>  <InChiKey>  (1) 
OUZUXYQXCXYGMX-IBGZPJMESA-N

>  <InChi>  (1) 
InChI=1S/C27H27ClN4O5/c1-15(2)12-19(27(34)35)31-26(33)20-14-32(21-10-11-29-18-13-16(28)8-9-17(18)21)25(30-20)24-22(36-3)6-5-7-23(24)37-4/h5-11,13-15,19H,12H2,1-4H3,(H,31,33)(H,34,35)/t19-/m0/s1

>  <IUPAC Name>  (1) 
(2S)-2-[[1-(7-chloroquinolin-4-yl)-2-(2,6-dimethoxyphenyl)imidazole-4-carbonyl]amino]-4-methylpentanoic acid

$$$$
