
     RDKit          3D

 68 70  0  0  0  0  0  0  0  0999 V2000
   -7.7413   -3.2594    0.4019 C   0  0  0  0  0  0  0  0  0  0  0  0
   -6.3097   -2.8973    0.5810 N   0  0  0  0  0  0  0  0  0  0  0  0
   -6.0897   -1.8146   -0.3176 C   0  0  0  0  0  0  0  0  0  0  0  0
   -4.7181   -1.2847   -0.4514 C   0  0  0  0  0  0  0  0  0  0  0  0
   -4.0694   -0.7312    0.7652 C   0  0  0  0  0  0  0  0  0  0  0  0
   -2.7352   -0.2545    0.3708 N   0  0  0  0  0  0  0  0  0  0  0  0
   -1.6249   -1.1263    0.4305 C   0  0  0  0  0  0  0  0  0  0  0  0
   -1.7677   -2.3128    0.8192 O   0  0  0  0  0  0  0  0  0  0  0  0
   -0.2855   -0.7021    0.0522 C   0  0  0  0  0  0  0  0  0  0  0  0
    0.0836   -0.8252   -1.2715 C   0  0  0  0  0  0  0  0  0  0  0  0
    1.3559   -0.4233   -1.6210 C   0  0  0  0  0  0  0  0  0  0  0  0
    2.2238    0.0838   -0.6700 C   0  0  0  0  0  0  0  0  0  0  0  0
    1.8745    0.2155    0.6593 C   0  0  0  0  0  0  0  0  0  0  0  0
    0.5940   -0.1885    1.0124 C   0  0  0  0  0  0  0  0  0  0  0  0
    3.8230    0.5544   -1.2575 S   0  0  0  0  0  0  0  0  0  0  0  0
    3.7270    1.0323   -2.6857 O   0  0  0  0  0  0  0  0  0  0  0  0
    4.3392    1.7162   -0.4702 O   0  0  0  0  0  0  0  0  0  0  0  0
    4.9248   -0.7332   -1.1806 N   0  0  0  0  0  0  0  0  0  0  0  0
    5.1990   -1.2761    0.1004 C   0  0  0  0  0  0  0  0  0  0  0  0
    6.3686   -0.6256    0.7142 C   0  0  0  0  0  0  0  0  0  0  0  0
    7.6224   -1.1433    0.3840 C   0  0  0  0  0  0  0  0  0  0  0  0
    8.7898   -0.6330    0.8999 C   0  0  0  0  0  0  0  0  0  0  0  0
    8.7387    0.4316    1.7793 C   0  0  0  0  0  0  0  0  0  0  0  0
    7.5063    0.9512    2.1132 C   0  0  0  0  0  0  0  0  0  0  0  0
    6.3181    0.4321    1.5885 C   0  0  0  0  0  0  0  0  0  0  0  0
    4.7707   -1.7207   -2.2201 C   0  0  0  0  0  0  0  0  0  0  0  0
   -2.6390    1.1013   -0.0606 C   0  0  0  0  0  0  0  0  0  0  0  0
   -2.7002    1.7678   -0.9994 N   0  0  0  0  0  0  0  0  0  0  0  0
   -2.5705    3.0694   -1.1594 C   0  0  0  0  0  0  0  0  0  0  0  0
   -2.3134    3.7372    0.0378 C   0  0  0  0  0  0  0  0  0  0  0  0
   -2.2828    2.4279    1.2806 S   0  0  0  0  0  0  0  0  0  0  0  0
   -2.1387    5.0945    0.1372 C   0  0  0  0  0  0  0  0  0  0  0  0
   -2.2147    5.8937   -1.0058 C   0  0  0  0  0  0  0  0  0  0  0  0
   -2.4701    5.2132   -2.1817 C   0  0  0  0  0  0  0  0  0  0  0  0
   -2.6435    3.8709   -2.2840 C   0  0  0  0  0  0  0  0  0  0  0  0
   -2.8885    3.3638   -3.5289 F   0  0  0  0  0  0  0  0  0  0  0  0
   -6.1381   -2.5642    1.9883 C   0  0  0  0  0  0  0  0  0  0  0  0
    0.6871    0.0000    0.0000 Cl  0  0  0  0  0  0  0  0  0  0  0  0
   -7.7807   -4.3707    0.3554 H   0  0  0  0  0  0  0  0  0  0  0  0
   -8.3195   -2.9710    1.2839 H   0  0  0  0  0  0  0  0  0  0  0  0
   -8.1477   -2.8684   -0.5358 H   0  0  0  0  0  0  0  0  0  0  0  0
   -6.4575   -2.0826   -1.3351 H   0  0  0  0  0  0  0  0  0  0  0  0
   -6.7422   -0.9677    0.0309 H   0  0  0  0  0  0  0  0  0  0  0  0
   -4.7774   -0.4367   -1.2005 H   0  0  0  0  0  0  0  0  0  0  0  0
   -4.0093   -1.9980   -0.9382 H   0  0  0  0  0  0  0  0  0  0  0  0
   -4.6590    0.1249    1.1428 H   0  0  0  0  0  0  0  0  0  0  0  0
   -3.8530   -1.4977    1.5459 H   0  0  0  0  0  0  0  0  0  0  0  0
   -0.5464   -1.2088   -2.0413 H   0  0  0  0  0  0  0  0  0  0  0  0
    1.6649   -0.5154   -2.6699 H   0  0  0  0  0  0  0  0  0  0  0  0
    2.5842    0.6167    1.3680 H   0  0  0  0  0  0  0  0  0  0  0  0
    0.2914   -0.0971    2.0471 H   0  0  0  0  0  0  0  0  0  0  0  0
    4.2998   -1.1512    0.7757 H   0  0  0  0  0  0  0  0  0  0  0  0
    5.3511   -2.3753    0.0315 H   0  0  0  0  0  0  0  0  0  0  0  0
    7.7128   -1.9904   -0.3115 H   0  0  0  0  0  0  0  0  0  0  0  0
    9.7355   -1.0783    0.6052 H   0  0  0  0  0  0  0  0  0  0  0  0
    9.6766    0.7988    2.1591 H   0  0  0  0  0  0  0  0  0  0  0  0
    7.4786    1.7968    2.8133 H   0  0  0  0  0  0  0  0  0  0  0  0
    5.3659    0.8499    1.8711 H   0  0  0  0  0  0  0  0  0  0  0  0
    4.5670   -2.7329   -1.8415 H   0  0  0  0  0  0  0  0  0  0  0  0
    3.9588   -1.4171   -2.9087 H   0  0  0  0  0  0  0  0  0  0  0  0
    5.7289   -1.7129   -2.8070 H   0  0  0  0  0  0  0  0  0  0  0  0
   -1.9418    5.5376    1.1077 H   0  0  0  0  0  0  0  0  0  0  0  0
   -2.0787    6.9511   -0.9296 H   0  0  0  0  0  0  0  0  0  0  0  0
   -2.5282    5.8498   -3.0789 H   0  0  0  0  0  0  0  0  0  0  0  0
   -5.3010   -3.1094    2.4586 H   0  0  0  0  0  0  0  0  0  0  0  0
   -6.1380   -1.4711    2.1415 H   0  0  0  0  0  0  0  0  0  0  0  0
   -7.0535   -2.9135    2.5662 H   0  0  0  0  0  0  0  0  0  0  0  0
   -0.6871    0.0000    0.0000 H   0  0  0  0  0  0  0  0  0  0  0  0
  1  2  1  0
  2  3  1  0
  3  4  1  0
  4  5  1  0
  5  6  1  0
  6  7  1  0
  7  8  2  0
  7  9  1  0
  9 10  2  0
 10 11  1  0
 11 12  2  0
 12 13  1  0
 13 14  2  0
 12 15  1  0
 15 16  2  0
 15 17  2  0
 15 18  1  0
 18 19  1  0
 19 20  1  0
 20 21  2  0
 21 22  1  0
 22 23  2  0
 23 24  1  0
 24 25  2  0
 18 26  1  0
  6 27  1  0
 27 28  2  0
 28 29  1  0
 29 30  2  0
 30 31  1  0
 30 32  1  0
 32 33  2  0
 33 34  1  0
 34 35  2  0
 35 36  1  0
  2 37  1  0
 14  9  1  0
 25 20  1  0
 31 27  1  0
 35 29  1  0
  1 39  1  0
  1 40  1  0
  1 41  1  0
  3 42  1  0
  3 43  1  0
  4 44  1  0
  4 45  1  0
  5 46  1  0
  5 47  1  0
 10 48  1  0
 11 49  1  0
 13 50  1  0
 14 51  1  0
 19 52  1  0
 19 53  1  0
 21 54  1  0
 22 55  1  0
 23 56  1  0
 24 57  1  0
 25 58  1  0
 26 59  1  0
 26 60  1  0
 26 61  1  0
 32 62  1  0
 33 63  1  0
 34 64  1  0
 37 65  1  0
 37 66  1  0
 37 67  1  0
 38 68  1  0
M  END
>  <Ligand ID>  (1) 
LIG0004544

>  <Ligand>  (1) 
MLS001239323

>  <SMILES>  (1) 
CN(CCCN(C(=O)c1ccc(cc1)S(=O)(=O)N(Cc1ccccc1)C)c1nc2c(s1)cccc2F)C.Cl

>  <CID>  (1) 
24892008.0

>  <ChEMBL ID>  (1) 
nan

>  <InChiKey>  (1) 
JEBRTAHIIPWQQK-UHFFFAOYSA-N

>  <InChi>  (1) 
InChI=1S/C27H29FN4O3S2.ClH/c1-30(2)17-8-18-32(27-29-25-23(28)11-7-12-24(25)36-27)26(33)21-13-15-22(16-14-21)37(34,35)31(3)19-20-9-5-4-6-10-20;/h4-7,9-16H,8,17-19H2,1-3H3;1H

>  <IUPAC Name>  (1) 
4-[benzyl(methyl)sulfamoyl]-N-[3-(dimethylamino)propyl]-N-(4-fluoro-1,3-benzothiazol-2-yl)benzamide;hydrochloride

$$$$
