
     RDKit          3D

 27 26  0  0  0  0  0  0  0  0999 V2000
   -4.1883    0.2679    0.0009 C   0  0  0  0  0  0  0  0  0  0  0  0
   -2.7780    0.8247   -0.1421 C   0  0  0  0  0  0  0  0  0  0  0  0
   -1.8402   -0.2517    0.3552 C   0  0  0  0  0  0  0  0  0  0  0  0
   -0.3789    0.1679    0.2714 C   0  0  0  0  0  0  0  0  0  0  0  0
    0.4669   -0.9631    0.7855 C   0  0  0  0  0  0  0  0  0  0  0  0
    1.9109   -0.5675    0.7116 C   0  0  0  0  0  0  0  0  0  0  0  0
    2.3871   -0.2457   -0.6819 C   0  0  0  0  0  0  0  0  0  0  0  0
    3.8583    0.1297   -0.5648 C   0  0  0  0  0  0  0  0  0  0  0  0
    2.0595    0.5390    1.5462 O   0  0  0  0  0  0  0  0  0  0  0  0
   -4.9636    1.0562    0.0227 H   0  0  0  0  0  0  0  0  0  0  0  0
   -4.3330   -0.4202   -0.8624 H   0  0  0  0  0  0  0  0  0  0  0  0
   -4.1930   -0.3568    0.9114 H   0  0  0  0  0  0  0  0  0  0  0  0
   -2.5511    1.1186   -1.1799 H   0  0  0  0  0  0  0  0  0  0  0  0
   -2.6712    1.7401    0.4798 H   0  0  0  0  0  0  0  0  0  0  0  0
   -2.0404   -1.1874   -0.1694 H   0  0  0  0  0  0  0  0  0  0  0  0
   -2.0822   -0.3926    1.4472 H   0  0  0  0  0  0  0  0  0  0  0  0
   -0.1195    0.3635   -0.7888 H   0  0  0  0  0  0  0  0  0  0  0  0
   -0.2315    1.0362    0.9309 H   0  0  0  0  0  0  0  0  0  0  0  0
    0.2519   -1.9266    0.2859 H   0  0  0  0  0  0  0  0  0  0  0  0
    0.2092   -1.0871    1.8568 H   0  0  0  0  0  0  0  0  0  0  0  0
    2.4989   -1.4098    1.1323 H   0  0  0  0  0  0  0  0  0  0  0  0
    1.8772    0.6648   -1.0542 H   0  0  0  0  0  0  0  0  0  0  0  0
    2.2036   -1.0565   -1.3926 H   0  0  0  0  0  0  0  0  0  0  0  0
    4.0969    1.0795   -1.0996 H   0  0  0  0  0  0  0  0  0  0  0  0
    4.1775    0.2685    0.4847 H   0  0  0  0  0  0  0  0  0  0  0  0
    4.4281   -0.7291   -1.0056 H   0  0  0  0  0  0  0  0  0  0  0  0
    1.9447    1.3378    0.9756 H   0  0  0  0  0  0  0  0  0  0  0  0
  1  2  1  0
  2  3  1  0
  3  4  1  0
  4  5  1  0
  5  6  1  0
  6  7  1  0
  7  8  1  0
  6  9  1  0
  1 10  1  0
  1 11  1  0
  1 12  1  0
  2 13  1  0
  2 14  1  0
  3 15  1  0
  3 16  1  0
  4 17  1  0
  4 18  1  0
  5 19  1  0
  5 20  1  0
  6 21  1  0
  7 22  1  0
  7 23  1  0
  8 24  1  0
  8 25  1  0
  8 26  1  0
  9 27  1  0
M  END
>  <Ligand ID>  (1) 
LIG0005023

>  <Ligand>  (1) 
octan-3-ol

>  <SMILES>  (1) 
CCCCCC(CC)O

>  <CID>  (1) 
11527.0

>  <ChEMBL ID>  (1) 
nan

>  <InChiKey>  (1) 
NMRPBPVERJPACX-UHFFFAOYSA-N

>  <InChi>  (1) 
InChI=1S/C8H18O/c1-3-5-6-7-8(9)4-2/h8-9H,3-7H2,1-2H3

>  <IUPAC Name>  (1) 
octan-3-ol

$$$$
