
     RDKit          3D

 25 25  0  0  0  0  0  0  0  0999 V2000
    3.7547   -0.1535   -0.4156 C   0  0  0  0  0  0  0  0  0  0  0  0
    2.2814   -0.1167   -0.1880 C   0  0  0  0  0  0  0  0  0  0  0  0
    1.4687   -0.7654   -1.0947 C   0  0  0  0  0  0  0  0  0  0  0  0
    0.0936   -0.7562   -0.9212 C   0  0  0  0  0  0  0  0  0  0  0  0
   -0.4425   -0.0884    0.1712 C   0  0  0  0  0  0  0  0  0  0  0  0
    0.4090    0.5572    1.0685 C   0  0  0  0  0  0  0  0  0  0  0  0
    1.7798    0.5569    0.9092 C   0  0  0  0  0  0  0  0  0  0  0  0
   -0.0982    1.2405    2.1815 O   0  0  0  0  0  0  0  0  0  0  0  0
   -1.9051   -0.0479    0.4031 C   0  0  0  0  0  0  0  0  0  0  0  0
   -2.5312    1.1546   -0.2815 C   0  0  0  0  0  0  0  0  0  0  0  0
   -2.5378   -1.3353   -0.1147 C   0  0  0  0  0  0  0  0  0  0  0  0
    4.3066    0.2387    0.4668 H   0  0  0  0  0  0  0  0  0  0  0  0
    4.1296   -1.1948   -0.5449 H   0  0  0  0  0  0  0  0  0  0  0  0
    4.0684    0.4276   -1.2916 H   0  0  0  0  0  0  0  0  0  0  0  0
    1.9169   -1.2830   -1.9451 H   0  0  0  0  0  0  0  0  0  0  0  0
   -0.5656   -1.2581   -1.6190 H   0  0  0  0  0  0  0  0  0  0  0  0
    2.4090    1.0568    1.6076 H   0  0  0  0  0  0  0  0  0  0  0  0
   -0.2762    2.2286    2.1720 H   0  0  0  0  0  0  0  0  0  0  0  0
   -2.0584    0.0688    1.4955 H   0  0  0  0  0  0  0  0  0  0  0  0
   -1.6957    1.8392   -0.5452 H   0  0  0  0  0  0  0  0  0  0  0  0
   -3.0976    0.7851   -1.1421 H   0  0  0  0  0  0  0  0  0  0  0  0
   -3.2261    1.7001    0.3999 H   0  0  0  0  0  0  0  0  0  0  0  0
   -1.8230   -2.1660   -0.1463 H   0  0  0  0  0  0  0  0  0  0  0  0
   -2.9363   -1.1587   -1.1529 H   0  0  0  0  0  0  0  0  0  0  0  0
   -3.4240   -1.5303    0.5275 H   0  0  0  0  0  0  0  0  0  0  0  0
  1  2  1  0
  2  3  2  0
  3  4  1  0
  4  5  2  0
  5  6  1  0
  6  7  2  0
  6  8  1  0
  5  9  1  0
  9 10  1  0
  9 11  1  0
  7  2  1  0
  1 12  1  0
  1 13  1  0
  1 14  1  0
  3 15  1  0
  4 16  1  0
  7 17  1  0
  8 18  1  0
  9 19  1  0
 10 20  1  0
 10 21  1  0
 10 22  1  0
 11 23  1  0
 11 24  1  0
 11 25  1  0
M  END
>  <Ligand ID>  (1) 
LIG0000169

>  <Ligand>  (1) 
thymol

>  <SMILES>  (1) 
Cc1ccc(c(c1)O)C(C)C

>  <CID>  (1) 
6989.0

>  <ChEMBL ID>  (1) 
nan

>  <InChiKey>  (1) 
MGSRCZKZVOBKFT-UHFFFAOYSA-N

>  <InChi>  (1) 
InChI=1S/C10H14O/c1-7(2)9-5-4-8(3)6-10(9)11/h4-7,11H,1-3H3

>  <IUPAC Name>  (1) 
5-methyl-2-propan-2-ylphenol

$$$$
