
     RDKit          3D

 24 25  0  0  0  0  0  0  0  0999 V2000
    3.3851   -1.4919   -0.2175 N   0  0  0  0  0  0  0  0  0  0  0  0
    2.9424   -0.1419    0.0773 C   0  0  0  0  0  0  0  0  0  0  0  0
    1.5130   -0.1019    0.6010 C   0  0  1  0  0  0  0  0  0  0  0  0
    1.0470    1.3047    0.9098 C   0  0  0  0  0  0  0  0  0  0  0  0
    0.5066    0.4781   -0.2835 C   0  0  2  0  0  0  0  0  0  0  0  0
   -0.9356    0.2069   -0.1602 C   0  0  0  0  0  0  0  0  0  0  0  0
   -1.4097   -0.2277    1.0555 C   0  0  0  0  0  0  0  0  0  0  0  0
   -2.7672   -0.5000    1.2299 C   0  0  0  0  0  0  0  0  0  0  0  0
   -3.6102   -0.3142    0.1304 C   0  0  0  0  0  0  0  0  0  0  0  0
   -3.1337    0.1188   -1.0784 C   0  0  0  0  0  0  0  0  0  0  0  0
   -1.7940    0.3866   -1.2472 C   0  0  0  0  0  0  0  0  0  0  0  0
   -5.3166   -0.6520    0.3340 Cl  0  0  0  0  0  0  0  0  0  0  0  0
    3.4248   -1.5540   -1.2722 H   0  0  0  0  0  0  0  0  0  0  0  0
    4.3822   -1.6016    0.0881 H   0  0  0  0  0  0  0  0  0  0  0  0
    3.0182    0.5339   -0.8222 H   0  0  0  0  0  0  0  0  0  0  0  0
    3.6101    0.3022    0.8541 H   0  0  0  0  0  0  0  0  0  0  0  0
    1.2970   -0.9189    1.3235 H   0  0  0  0  0  0  0  0  0  0  0  0
    1.6601    2.1706    0.6380 H   0  0  0  0  0  0  0  0  0  0  0  0
    0.4256    1.3911    1.8121 H   0  0  0  0  0  0  0  0  0  0  0  0
    0.8386    0.8272   -1.2881 H   0  0  0  0  0  0  0  0  0  0  0  0
   -0.7632   -0.3768    1.9210 H   0  0  0  0  0  0  0  0  0  0  0  0
   -3.1522   -0.8441    2.1871 H   0  0  0  0  0  0  0  0  0  0  0  0
   -3.7735    0.2711   -1.9509 H   0  0  0  0  0  0  0  0  0  0  0  0
   -1.3947    0.7339   -2.2077 H   0  0  0  0  0  0  0  0  0  0  0  0
  1  2  1  0
  2  3  1  0
  3  4  1  0
  4  5  1  0
  5  6  1  0
  6  7  2  0
  7  8  1  0
  8  9  2  0
  9 10  1  0
 10 11  2  0
  9 12  1  0
  5  3  1  0
 11  6  1  0
  1 13  1  0
  1 14  1  0
  2 15  1  0
  2 16  1  0
  3 17  1  1
  4 18  1  0
  4 19  1  0
  5 20  1  6
  7 21  1  0
  8 22  1  0
 10 23  1  0
 11 24  1  0
M  END
>  <Ligand ID>  (1) 
LIG0002382

>  <Ligand>  (1) 
CHEMBL469729

>  <SMILES>  (1) 
NC[C@H]1C[C@@H]1c1ccc(cc1)Cl

>  <CID>  (1) 
44572812.0

>  <ChEMBL ID>  (1) 
nan

>  <InChiKey>  (1) 
DIYMKPLIASICGD-PSASIEDQSA-N

>  <InChi>  (1) 
InChI=1S/C10H12ClN/c11-9-3-1-7(2-4-9)10-5-8(10)6-12/h1-4,8,10H,5-6,12H2/t8-,10-/m1/s1

>  <IUPAC Name>  (1) 
[(1S,2S)-2-(4-chlorophenyl)cyclopropyl]methanamine

$$$$
