
     RDKit          3D

 67 69  0  0  0  0  0  0  0  0999 V2000
   -2.8677   -3.9526    0.3566 C   0  0  0  0  0  0  0  0  0  0  0  0
   -3.4343   -2.5551   -0.0215 C   0  0  2  0  0  0  0  0  0  0  0  0
   -2.2499   -1.8498   -0.6695 C   0  0  1  0  0  0  0  0  0  0  0  0
   -1.1492   -1.7479    0.3201 C   0  0  0  0  0  0  0  0  0  0  0  0
    0.0917   -1.0559   -0.0334 C   0  0  0  0  0  0  0  0  0  0  0  0
    0.9764   -1.4519   -1.1490 C   0  0  1  0  0  0  0  0  0  0  0  0
    0.3881   -1.3680   -2.5035 C   0  0  0  0  0  0  0  0  0  0  0  0
    1.4612   -0.7088   -3.3773 C   0  0  0  0  0  0  0  0  0  0  0  0
    2.0903    0.2294   -2.3917 C   0  0  0  0  0  0  0  0  0  0  0  0
    2.4876    1.4003   -2.5591 O   0  0  0  0  0  0  0  0  0  0  0  0
    2.1343   -0.5320   -1.1936 N   0  0  0  0  0  0  0  0  0  0  0  0
    3.1700   -0.4125   -0.1743 C   0  0  0  0  0  0  0  0  0  0  0  0
    4.3322   -1.3230   -0.3939 C   0  0  0  0  0  0  0  0  0  0  0  0
    5.3916   -1.1710    0.6889 C   0  0  0  0  0  0  0  0  0  0  0  0
    5.8968    0.2257    0.7005 C   0  0  0  0  0  0  0  0  0  0  0  0
    5.4349    1.2772    1.4015 C   0  0  0  0  0  0  0  0  0  0  0  0
    6.0382    2.4725    1.2717 C   0  0  0  0  0  0  0  0  0  0  0  0
    7.1050    2.5473    0.4185 C   0  0  0  0  0  0  0  0  0  0  0  0
    7.2713    0.8294   -0.2436 S   0  0  0  0  0  0  0  0  0  0  0  0
    7.9890    3.6372    0.0261 C   0  0  0  0  0  0  0  0  0  0  0  0
    8.9027    3.4361   -0.7860 O   0  0  0  0  0  0  0  0  0  0  0  0
    7.7565    4.8718    0.5954 O   0  0  0  0  0  0  0  0  0  0  0  0
    2.3799   -1.6248   -3.8208 F   0  0  0  0  0  0  0  0  0  0  0  0
    0.9250   -0.0618   -4.4523 F   0  0  0  0  0  0  0  0  0  0  0  0
   -1.8047   -2.8956   -1.5866 O   0  0  0  0  0  0  0  0  0  0  0  0
   -4.0062   -1.9670    1.1964 C   0  0  0  0  0  0  0  0  0  0  0  0
   -4.6505   -0.6335    1.2053 C   0  0  0  0  0  0  0  0  0  0  0  0
   -3.8474    0.5463    0.8883 C   0  0  0  0  0  0  0  0  0  0  0  0
   -4.6191    1.8332    0.9699 C   0  0  0  0  0  0  0  0  0  0  0  0
   -5.2882    2.3586   -0.1094 C   0  0  0  0  0  0  0  0  0  0  0  0
   -5.9993    3.5506   -0.0231 C   0  0  0  0  0  0  0  0  0  0  0  0
   -6.0342    4.2226    1.1757 C   0  0  0  0  0  0  0  0  0  0  0  0
   -5.3639    3.6974    2.2594 C   0  0  0  0  0  0  0  0  0  0  0  0
   -4.6654    2.5274    2.1763 C   0  0  0  0  0  0  0  0  0  0  0  0
   -3.6696   -4.7104    0.2557 H   0  0  0  0  0  0  0  0  0  0  0  0
   -2.0116   -4.1981   -0.2821 H   0  0  0  0  0  0  0  0  0  0  0  0
   -2.5303   -3.8432    1.4058 H   0  0  0  0  0  0  0  0  0  0  0  0
   -4.1668   -2.7678   -0.8186 H   0  0  0  0  0  0  0  0  0  0  0  0
   -2.4902   -0.9938   -1.2752 H   0  0  0  0  0  0  0  0  0  0  0  0
   -0.9317   -2.7889    0.7247 H   0  0  0  0  0  0  0  0  0  0  0  0
   -1.5482   -1.2200    1.2680 H   0  0  0  0  0  0  0  0  0  0  0  0
    0.7409   -0.9919    0.9026 H   0  0  0  0  0  0  0  0  0  0  0  0
   -0.2057    0.0522   -0.1550 H   0  0  0  0  0  0  0  0  0  0  0  0
    1.4077   -2.5016   -0.9638 H   0  0  0  0  0  0  0  0  0  0  0  0
    0.3247   -2.4017   -2.9357 H   0  0  0  0  0  0  0  0  0  0  0  0
   -0.5563   -0.7911   -2.5901 H   0  0  0  0  0  0  0  0  0  0  0  0
    3.5604    0.6268   -0.2256 H   0  0  0  0  0  0  0  0  0  0  0  0
    2.7192   -0.5807    0.8081 H   0  0  0  0  0  0  0  0  0  0  0  0
    4.0496   -2.3851   -0.4495 H   0  0  0  0  0  0  0  0  0  0  0  0
    4.8051   -1.1004   -1.3844 H   0  0  0  0  0  0  0  0  0  0  0  0
    6.2050   -1.8870    0.5777 H   0  0  0  0  0  0  0  0  0  0  0  0
    4.9187   -1.3405    1.6633 H   0  0  0  0  0  0  0  0  0  0  0  0
    4.5531    1.1509    2.0869 H   0  0  0  0  0  0  0  0  0  0  0  0
    5.7081    3.3798    1.8204 H   0  0  0  0  0  0  0  0  0  0  0  0
    8.4739    5.5988    0.5924 H   0  0  0  0  0  0  0  0  0  0  0  0
   -2.5851   -3.2332   -2.0650 H   0  0  0  0  0  0  0  0  0  0  0  0
   -3.2462   -1.9451    2.0423 H   0  0  0  0  0  0  0  0  0  0  0  0
   -4.7538   -2.7561    1.5953 H   0  0  0  0  0  0  0  0  0  0  0  0
   -5.1962   -0.5616    2.1854 H   0  0  0  0  0  0  0  0  0  0  0  0
   -5.5295   -0.6306    0.4647 H   0  0  0  0  0  0  0  0  0  0  0  0
   -3.0309    0.6402    1.6597 H   0  0  0  0  0  0  0  0  0  0  0  0
   -3.3480    0.5880   -0.0712 H   0  0  0  0  0  0  0  0  0  0  0  0
   -5.2705    1.8378   -1.0677 H   0  0  0  0  0  0  0  0  0  0  0  0
   -6.4947    3.8949   -0.9099 H   0  0  0  0  0  0  0  0  0  0  0  0
   -6.5887    5.1437    1.2266 H   0  0  0  0  0  0  0  0  0  0  0  0
   -5.4167    4.2585    3.1857 H   0  0  0  0  0  0  0  0  0  0  0  0
   -4.1384    2.1056    3.0111 H   0  0  0  0  0  0  0  0  0  0  0  0
  1  2  1  0
  2  3  1  0
  3  4  1  0
  4  5  1  0
  5  6  1  0
  6  7  1  0
  7  8  1  0
  8  9  1  0
  9 10  2  0
  9 11  1  0
 11 12  1  0
 12 13  1  0
 13 14  1  0
 14 15  1  0
 15 16  2  0
 16 17  1  0
 17 18  2  0
 18 19  1  0
 18 20  1  0
 20 21  2  0
 20 22  1  0
  8 23  1  0
  8 24  1  0
  3 25  1  0
  2 26  1  0
 26 27  1  0
 27 28  1  0
 28 29  1  0
 29 30  2  0
 30 31  1  0
 31 32  2  0
 32 33  1  0
 33 34  2  0
 11  6  1  0
 19 15  1  0
 34 29  1  0
  1 35  1  0
  1 36  1  0
  1 37  1  0
  2 38  1  6
  3 39  1  6
  4 40  1  0
  4 41  1  0
  5 42  1  0
  5 43  1  0
  6 44  1  1
  7 45  1  0
  7 46  1  0
 12 47  1  0
 12 48  1  0
 13 49  1  0
 13 50  1  0
 14 51  1  0
 14 52  1  0
 16 53  1  0
 17 54  1  0
 22 55  1  0
 25 56  1  0
 26 57  1  0
 26 58  1  0
 27 59  1  0
 27 60  1  0
 28 61  1  0
 28 62  1  0
 30 63  1  0
 31 64  1  0
 32 65  1  0
 33 66  1  0
 34 67  1  0
M  END
>  <Ligand ID>  (1) 
LIG0005221

>  <Ligand>  (1) 
CHEMBL3900979

>  <SMILES>  (1) 
C[C@H]([C@@H](CC[C@H]1CC(C(=O)N1CCCc1ccc(s1)C(=O)O)(F)F)O)CCCc1ccccc1

>  <CID>  (1) 
90054450.0

>  <ChEMBL ID>  (1) 
nan

>  <InChiKey>  (1) 
GWWAGJDSDSCGLK-RCZSKKKRSA-N

>  <InChi>  (1) 
InChI=1S/C26H33F2NO4S/c1-18(7-5-10-19-8-3-2-4-9-19)22(30)14-12-20-17-26(27,28)25(33)29(20)16-6-11-21-13-15-23(34-21)24(31)32/h2-4,8-9,13,15,18,20,22,30H,5-7,10-12,14,16-17H2,1H3,(H,31,32)/t18-,20-,22+/m0/s1

>  <IUPAC Name>  (1) 
5-[3-[(5S)-3,3-difluoro-5-[(3R,4S)-3-hydroxy-4-methyl-7-phenylheptyl]-2-oxopyrrolidin-1-yl]propyl]thiophene-2-carboxylic acid

$$$$
