
     RDKit          3D

 89 94  0  0  0  0  0  0  0  0999 V2000
    3.4503    1.7195    1.8138 O   0  0  0  0  0  0  0  0  0  0  0  0
    3.9057    1.0750    0.8086 C   0  0  0  0  0  0  0  0  0  0  0  0
    5.2260    1.3942    0.2639 C   0  0  2  0  0  0  0  0  0  0  0  0
    5.6057    0.5791   -0.8720 N   0  0  0  0  0  0  0  0  0  0  0  0
    6.6182    1.3219   -1.6060 C   0  0  0  0  0  0  0  0  0  0  0  0
    7.6966    1.7405   -0.6798 C   0  0  0  0  0  0  0  0  0  0  0  0
    7.5596    1.7464    0.6951 C   0  0  0  0  0  0  0  0  0  0  0  0
    6.2746    1.3175    1.3492 C   0  0  0  0  0  0  0  0  0  0  0  0
    8.6246    2.1544    1.4744 C   0  0  0  0  0  0  0  0  0  0  0  0
    9.8258    2.5565    0.8931 C   0  0  0  0  0  0  0  0  0  0  0  0
    9.9753    2.5543   -0.4971 C   0  0  0  0  0  0  0  0  0  0  0  0
    8.8926    2.1412   -1.2500 C   0  0  0  0  0  0  0  0  0  0  0  0
    3.1494    0.0335    0.1900 N   0  0  0  0  0  0  0  0  0  0  0  0
    1.8203   -0.3133    0.7102 C   0  0  1  0  0  0  0  0  0  0  0  0
    0.8819   -0.1266   -0.3978 C   0  0  0  0  0  0  0  0  0  0  0  0
    1.3807    0.2038   -1.5278 O   0  0  0  0  0  0  0  0  0  0  0  0
   -0.5174   -0.2712   -0.3558 N   0  0  0  0  0  0  0  0  0  0  0  0
   -1.2609   -0.0601   -1.5943 C   0  0  0  0  0  0  0  0  0  0  0  0
   -2.5885   -0.7729   -1.4754 C   0  0  0  0  0  0  0  0  0  0  0  0
   -3.4681   -0.1359   -0.4151 C   0  0  0  0  0  0  0  0  0  0  0  0
   -2.5885    0.1857    0.7377 C   0  0  0  0  0  0  0  0  0  0  0  0
   -1.2940   -0.6048    0.8148 C   0  0  0  0  0  0  0  0  0  0  0  0
   -3.9641    1.1810   -1.0328 C   0  0  0  0  0  0  0  0  0  0  0  0
   -4.8249    1.9345   -0.2037 N   0  0  0  0  0  0  0  0  0  0  0  0
   -6.0031    2.4732   -0.7835 C   0  0  0  0  0  0  0  0  0  0  0  0
   -6.0232    3.9550   -0.7011 C   0  0  0  0  0  0  0  0  0  0  0  0
   -5.4798    4.3577    0.6777 C   0  0  0  0  0  0  0  0  0  0  0  0
   -4.0984    3.1859    0.7223 S   0  0  0  0  0  0  0  0  0  0  0  0
   -3.8136    2.8275    2.1292 O   0  0  0  0  0  0  0  0  0  0  0  0
   -2.9309    3.7887   -0.0092 O   0  0  0  0  0  0  0  0  0  0  0  0
   -4.6804   -0.9587   -0.0829 C   0  0  0  0  0  0  0  0  0  0  0  0
   -4.4349   -2.3124    0.4681 C   0  0  0  0  0  0  0  0  0  0  0  0
   -5.6760   -2.6708    1.3104 C   0  0  0  0  0  0  0  0  0  0  0  0
   -6.9237   -2.2535    0.5582 C   0  0  0  0  0  0  0  0  0  0  0  0
   -6.6594   -2.1279   -0.9256 C   0  0  0  0  0  0  0  0  0  0  0  0
   -5.5834   -1.1549   -1.2831 C   0  0  0  0  0  0  0  0  0  0  0  0
    1.8441   -1.7240    1.2703 C   0  0  0  0  0  0  0  0  0  0  0  0
    2.2048   -2.7389    0.2679 C   0  0  0  0  0  0  0  0  0  0  0  0
    1.2663   -3.3824   -0.5133 C   0  0  0  0  0  0  0  0  0  0  0  0
    1.6752   -4.3084   -1.4191 C   0  0  0  0  0  0  0  0  0  0  0  0
    3.0125   -4.6083   -1.5629 C   0  0  0  0  0  0  0  0  0  0  0  0
    3.9827   -3.9873   -0.8008 C   0  0  0  0  0  0  0  0  0  0  0  0
    3.5647   -3.0382    0.1277 C   0  0  0  0  0  0  0  0  0  0  0  0
    3.4871   -5.8236   -2.7592 Cl  0  0  0  0  0  0  0  0  0  0  0  0
    5.2299    2.4549   -0.0852 H   0  0  0  0  0  0  0  0  0  0  0  0
    5.9276   -0.3645   -0.6034 H   0  0  0  0  0  0  0  0  0  0  0  0
    7.0213    0.7132   -2.4435 H   0  0  0  0  0  0  0  0  0  0  0  0
    6.0988    2.2384   -1.9976 H   0  0  0  0  0  0  0  0  0  0  0  0
    6.0352    2.1065    2.0925 H   0  0  0  0  0  0  0  0  0  0  0  0
    6.3569    0.3161    1.7941 H   0  0  0  0  0  0  0  0  0  0  0  0
    8.5400    2.1677    2.5511 H   0  0  0  0  0  0  0  0  0  0  0  0
   10.6470    2.8712    1.4986 H   0  0  0  0  0  0  0  0  0  0  0  0
   10.9011    2.8634   -0.9636 H   0  0  0  0  0  0  0  0  0  0  0  0
    9.0086    2.1391   -2.3402 H   0  0  0  0  0  0  0  0  0  0  0  0
    3.4901   -0.5123   -0.6307 H   0  0  0  0  0  0  0  0  0  0  0  0
    1.6436    0.3639    1.5673 H   0  0  0  0  0  0  0  0  0  0  0  0
   -0.7149   -0.5466   -2.4295 H   0  0  0  0  0  0  0  0  0  0  0  0
   -1.3396    1.0047   -1.8668 H   0  0  0  0  0  0  0  0  0  0  0  0
   -2.3331   -1.8293   -1.2091 H   0  0  0  0  0  0  0  0  0  0  0  0
   -3.1076   -0.7092   -2.4515 H   0  0  0  0  0  0  0  0  0  0  0  0
   -2.2210    1.2464    0.5934 H   0  0  0  0  0  0  0  0  0  0  0  0
   -3.1142    0.2024    1.7154 H   0  0  0  0  0  0  0  0  0  0  0  0
   -0.7970   -0.2590    1.7540 H   0  0  0  0  0  0  0  0  0  0  0  0
   -1.3974   -1.6800    0.8341 H   0  0  0  0  0  0  0  0  0  0  0  0
   -4.4158    1.0415   -2.0256 H   0  0  0  0  0  0  0  0  0  0  0  0
   -3.0677    1.8468   -1.2407 H   0  0  0  0  0  0  0  0  0  0  0  0
   -5.9932    2.2097   -1.8720 H   0  0  0  0  0  0  0  0  0  0  0  0
   -6.9133    2.0592   -0.2953 H   0  0  0  0  0  0  0  0  0  0  0  0
   -5.4070    4.4126   -1.5022 H   0  0  0  0  0  0  0  0  0  0  0  0
   -7.0880    4.2817   -0.8083 H   0  0  0  0  0  0  0  0  0  0  0  0
   -5.1367    5.3924    0.6637 H   0  0  0  0  0  0  0  0  0  0  0  0
   -6.2433    4.0993    1.4129 H   0  0  0  0  0  0  0  0  0  0  0  0
   -5.2634   -0.3798    0.6600 H   0  0  0  0  0  0  0  0  0  0  0  0
   -4.4707   -3.0772   -0.3591 H   0  0  0  0  0  0  0  0  0  0  0  0
   -3.5912   -2.4506    1.1334 H   0  0  0  0  0  0  0  0  0  0  0  0
   -5.6739   -3.7315    1.6123 H   0  0  0  0  0  0  0  0  0  0  0  0
   -5.6357   -2.0664    2.2405 H   0  0  0  0  0  0  0  0  0  0  0  0
   -7.4067   -1.3497    0.9936 H   0  0  0  0  0  0  0  0  0  0  0  0
   -7.6577   -3.0796    0.6691 H   0  0  0  0  0  0  0  0  0  0  0  0
   -6.5020   -3.1602   -1.3236 H   0  0  0  0  0  0  0  0  0  0  0  0
   -7.6392   -1.7697   -1.3573 H   0  0  0  0  0  0  0  0  0  0  0  0
   -5.9371   -0.2430   -1.7550 H   0  0  0  0  0  0  0  0  0  0  0  0
   -4.9593   -1.6732   -2.0706 H   0  0  0  0  0  0  0  0  0  0  0  0
    0.9033   -1.8934    1.8003 H   0  0  0  0  0  0  0  0  0  0  0  0
    2.6263   -1.6804    2.0847 H   0  0  0  0  0  0  0  0  0  0  0  0
    0.2317   -3.0965   -0.3459 H   0  0  0  0  0  0  0  0  0  0  0  0
    0.8935   -4.7950   -2.0193 H   0  0  0  0  0  0  0  0  0  0  0  0
    5.0450   -4.2091   -0.8985 H   0  0  0  0  0  0  0  0  0  0  0  0
    4.3153   -2.5278    0.7478 H   0  0  0  0  0  0  0  0  0  0  0  0
  1  2  2  0
  2  3  1  0
  3  4  1  0
  4  5  1  0
  5  6  1  0
  6  7  2  0
  7  8  1  0
  7  9  1  0
  9 10  2  0
 10 11  1  0
 11 12  2  0
  2 13  1  0
 13 14  1  0
 14 15  1  0
 15 16  2  0
 15 17  1  0
 17 18  1  0
 18 19  1  0
 19 20  1  0
 20 21  1  0
 21 22  1  0
 20 23  1  0
 23 24  1  0
 24 25  1  0
 25 26  1  0
 26 27  1  0
 27 28  1  0
 28 29  2  0
 28 30  2  0
 20 31  1  0
 31 32  1  0
 32 33  1  0
 33 34  1  0
 34 35  1  0
 35 36  1  0
 14 37  1  0
 37 38  1  0
 38 39  2  0
 39 40  1  0
 40 41  2  0
 41 42  1  0
 42 43  2  0
 41 44  1  0
  8  3  1  0
 22 17  1  0
 28 24  1  0
 36 31  1  0
 43 38  1  0
 12  6  1  0
  3 45  1  6
  4 46  1  0
  5 47  1  0
  5 48  1  0
  8 49  1  0
  8 50  1  0
  9 51  1  0
 10 52  1  0
 11 53  1  0
 12 54  1  0
 13 55  1  0
 14 56  1  1
 18 57  1  0
 18 58  1  0
 19 59  1  0
 19 60  1  0
 21 61  1  0
 21 62  1  0
 22 63  1  0
 22 64  1  0
 23 65  1  0
 23 66  1  0
 25 67  1  0
 25 68  1  0
 26 69  1  0
 26 70  1  0
 27 71  1  0
 27 72  1  0
 31 73  1  0
 32 74  1  0
 32 75  1  0
 33 76  1  0
 33 77  1  0
 34 78  1  0
 34 79  1  0
 35 80  1  0
 35 81  1  0
 36 82  1  0
 36 83  1  0
 37 84  1  0
 37 85  1  0
 39 86  1  0
 40 87  1  0
 42 88  1  0
 43 89  1  0
M  END
>  <Ligand ID>  (1) 
LIG0001356

>  <Ligand>  (1) 
CHEMBL203975

>  <SMILES>  (1) 
O=C([C@@H]1NCc2c(C1)cccc2)N[C@@H](C(=O)N1CCC(CC1)(CN1CCCS1(=O)=O)C1CCCCC1)Cc1ccc(cc1)Cl

>  <CID>  (1) 
44408173.0

>  <ChEMBL ID>  (1) 
nan

>  <InChiKey>  (1) 
DTYOAGHBUMBHBH-FIRIVFDPSA-N

>  <InChi>  (1) 
InChI=1S/C34H45ClN4O4S/c35-29-13-11-25(12-14-29)21-31(37-32(40)30-22-26-7-4-5-8-27(26)23-36-30)33(41)38-18-15-34(16-19-38,28-9-2-1-3-10-28)24-39-17-6-20-44(39,42)43/h4-5,7-8,11-14,28,30-31,36H,1-3,6,9-10,15-24H2,(H,37,40)/t30-,31-/m1/s1

>  <IUPAC Name>  (1) 
(3R)-N-[(2R)-3-(4-chlorophenyl)-1-[4-cyclohexyl-4-[(1,1-dioxo-1,2-thiazolidin-2-yl)methyl]piperidin-1-yl]-1-oxopropan-2-yl]-1,2,3,4-tetrahydroisoquinoline-3-carboxamide

$$$$
