
     RDKit          3D

 48 50  0  0  0  0  0  0  0  0999 V2000
    8.4970    2.2574    0.1283 C   0  0  0  0  0  0  0  0  0  0  0  0
    7.7292    1.0419    0.3215 N   0  0  0  0  0  0  0  0  0  0  0  0
    6.3946    0.9692   -0.1594 C   0  0  0  0  0  0  0  0  0  0  0  0
    5.9444    1.9894   -0.7399 O   0  0  0  0  0  0  0  0  0  0  0  0
    5.5714   -0.2444    0.0119 C   0  0  0  0  0  0  0  0  0  0  0  0
    6.0255   -1.3409    0.6244 N   0  0  0  0  0  0  0  0  0  0  0  0
    5.2431   -2.4264    0.7600 C   0  0  0  0  0  0  0  0  0  0  0  0
    3.9476   -2.4783    0.2857 C   0  0  0  0  0  0  0  0  0  0  0  0
    3.4768   -1.3446   -0.3480 C   0  0  0  0  0  0  0  0  0  0  0  0
    4.2979   -0.2335   -0.4791 C   0  0  0  0  0  0  0  0  0  0  0  0
    2.1124   -1.2325   -0.9143 C   0  0  0  0  0  0  0  0  0  0  0  0
    0.9261   -0.5906    0.3031 S   0  0  0  0  0  0  0  0  0  0  0  0
   -0.6706   -0.5038   -0.4987 C   0  0  0  0  0  0  0  0  0  0  0  0
   -0.8518   -0.8744   -1.7846 N   0  0  0  0  0  0  0  0  0  0  0  0
   -2.0716   -0.8003   -2.3729 C   0  0  0  0  0  0  0  0  0  0  0  0
   -2.2855   -1.1863   -3.7288 N   0  0  0  0  0  0  0  0  0  0  0  0
   -3.1511   -0.3389   -1.6503 C   0  0  0  0  0  0  0  0  0  0  0  0
   -2.9791    0.0467   -0.3238 C   0  0  0  0  0  0  0  0  0  0  0  0
   -1.7275   -0.0346    0.2633 C   0  0  0  0  0  0  0  0  0  0  0  0
   -1.5196    0.3607    1.6443 C   0  0  0  0  0  0  0  0  0  0  0  0
   -1.3619    0.6753    2.7491 N   0  0  0  0  0  0  0  0  0  0  0  0
   -4.0898    0.5427    0.4862 C   0  0  0  0  0  0  0  0  0  0  0  0
   -4.3193    1.9204    0.4647 C   0  0  0  0  0  0  0  0  0  0  0  0
   -5.3471    2.4735    1.2003 C   0  0  0  0  0  0  0  0  0  0  0  0
   -6.1380    1.6217    1.9554 C   0  0  0  0  0  0  0  0  0  0  0  0
   -5.9041    0.2463    1.9729 C   0  0  0  0  0  0  0  0  0  0  0  0
   -4.8888   -0.2855    1.2442 C   0  0  0  0  0  0  0  0  0  0  0  0
   -6.8218   -0.5753    2.8244 C   0  0  0  0  0  0  0  0  0  0  0  0
   -8.1384   -0.4603    2.4333 F   0  0  0  0  0  0  0  0  0  0  0  0
   -6.6270   -0.3527    4.1655 F   0  0  0  0  0  0  0  0  0  0  0  0
   -6.4735   -1.9054    2.5966 F   0  0  0  0  0  0  0  0  0  0  0  0
   -7.1452    2.1729    2.6749 F   0  0  0  0  0  0  0  0  0  0  0  0
   -4.4649   -0.2390   -2.2207 C   0  0  0  0  0  0  0  0  0  0  0  0
   -5.5245   -0.1597   -2.6712 N   0  0  0  0  0  0  0  0  0  0  0  0
    8.9172    2.6244    1.0882 H   0  0  0  0  0  0  0  0  0  0  0  0
    7.8582    3.0394   -0.2887 H   0  0  0  0  0  0  0  0  0  0  0  0
    9.3315    2.0915   -0.6131 H   0  0  0  0  0  0  0  0  0  0  0  0
    8.1559    0.2242    0.8120 H   0  0  0  0  0  0  0  0  0  0  0  0
    5.6092   -3.3240    1.2593 H   0  0  0  0  0  0  0  0  0  0  0  0
    3.3016   -3.3333    0.3812 H   0  0  0  0  0  0  0  0  0  0  0  0
    3.9356    0.6564   -0.9738 H   0  0  0  0  0  0  0  0  0  0  0  0
    2.1010   -0.5412   -1.7692 H   0  0  0  0  0  0  0  0  0  0  0  0
    1.7795   -2.2551   -1.1765 H   0  0  0  0  0  0  0  0  0  0  0  0
   -1.6195   -0.8902   -4.4942 H   0  0  0  0  0  0  0  0  0  0  0  0
   -3.1252   -1.7773   -3.9626 H   0  0  0  0  0  0  0  0  0  0  0  0
   -3.6957    2.5808   -0.1289 H   0  0  0  0  0  0  0  0  0  0  0  0
   -5.5036    3.5401    1.1670 H   0  0  0  0  0  0  0  0  0  0  0  0
   -4.7105   -1.3465    1.2594 H   0  0  0  0  0  0  0  0  0  0  0  0
  1  2  1  0
  2  3  1  0
  3  4  2  0
  3  5  1  0
  5  6  2  0
  6  7  1  0
  7  8  2  0
  8  9  1  0
  9 10  2  0
  9 11  1  0
 11 12  1  0
 12 13  1  0
 13 14  2  0
 14 15  1  0
 15 16  1  0
 15 17  2  0
 17 18  1  0
 18 19  2  0
 19 20  1  0
 20 21  3  0
 18 22  1  0
 22 23  2  0
 23 24  1  0
 24 25  2  0
 25 26  1  0
 26 27  2  0
 26 28  1  0
 28 29  1  0
 28 30  1  0
 28 31  1  0
 25 32  1  0
 17 33  1  0
 33 34  3  0
 10  5  1  0
 19 13  1  0
 27 22  1  0
  1 35  1  0
  1 36  1  0
  1 37  1  0
  2 38  1  0
  7 39  1  0
  8 40  1  0
 10 41  1  0
 11 42  1  0
 11 43  1  0
 16 44  1  0
 16 45  1  0
 23 46  1  0
 24 47  1  0
 27 48  1  0
M  END
>  <Ligand ID>  (1) 
LIG0004658

>  <Ligand>  (1) 
SCHEMBL3351054

>  <SMILES>  (1) 
CNC(=O)c1nccc(c1)CSc1nc(N)c(c(c1C#N)c1ccc(c(c1)C(F)(F)F)F)C#N

>  <CID>  (1) 
56592177.0

>  <ChEMBL ID>  (1) 
nan

>  <InChiKey>  (1) 
OELVMHHCDQEDBA-UHFFFAOYSA-N

>  <InChi>  (1) 
InChI=1S/C22H14F4N6OS/c1-30-20(33)17-6-11(4-5-31-17)10-34-21-14(9-28)18(13(8-27)19(29)32-21)12-2-3-16(23)15(7-12)22(24,25)26/h2-7H,10H2,1H3,(H2,29,32)(H,30,33)

>  <IUPAC Name>  (1) 
4-[[6-amino-3,5-dicyano-4-[4-fluoro-3-(trifluoromethyl)phenyl]pyridin-2-yl]sulfanylmethyl]-N-methylpyridine-2-carboxamide

$$$$
