
     RDKit          3D

 38 37  0  0  0  0  0  0  0  0999 V2000
    1.6352    0.2020    1.3665 O   0  0  0  0  0  0  0  0  0  0  0  0
    1.7695    1.3121    0.7830 C   0  0  0  0  0  0  0  0  0  0  0  0
    2.7690    1.4891   -0.2274 N   0  0  0  0  0  0  0  0  0  0  0  0
    3.6500    0.4451   -0.6235 C   0  0  0  0  0  0  0  0  0  0  0  0
    3.3729   -0.4428   -1.6337 C   0  0  0  0  0  0  0  0  0  0  0  0
    4.2431   -1.4462   -1.9990 C   0  0  0  0  0  0  0  0  0  0  0  0
    5.4473   -1.5847   -1.3380 C   0  0  0  0  0  0  0  0  0  0  0  0
    5.7316   -0.7000   -0.3260 C   0  0  0  0  0  0  0  0  0  0  0  0
    4.8561    0.2981    0.0308 C   0  0  0  0  0  0  0  0  0  0  0  0
    7.2722   -0.8905    0.5071 Cl  0  0  0  0  0  0  0  0  0  0  0  0
    0.9820    2.4206    1.0647 O   0  0  0  0  0  0  0  0  0  0  0  0
   -0.0124    2.2694    2.0597 C   0  0  0  0  0  0  0  0  0  0  0  0
   -0.9440    1.2162    1.6550 C   0  0  0  0  0  0  0  0  0  0  0  0
   -1.7339    0.3532    1.3256 C   0  0  0  0  0  0  0  0  0  0  0  0
   -2.6907   -0.7111    0.9375 C   0  0  0  0  0  0  0  0  0  0  0  0
   -3.6249   -0.1531   -0.0068 N   0  0  0  0  0  0  0  0  0  0  0  0
   -3.0304   -0.2356   -1.3291 C   0  0  0  0  0  0  0  0  0  0  0  0
   -3.9344    1.2243    0.3279 C   0  0  0  0  0  0  0  0  0  0  0  0
   -4.8347   -0.9322    0.0195 C   0  0  0  0  0  0  0  0  0  0  0  0
    0.0000    0.0000    0.0000 Cl  0  0  0  0  0  0  0  0  0  0  0  0
    2.8909    2.4104   -0.7215 H   0  0  0  0  0  0  0  0  0  0  0  0
    2.4303   -0.3342   -2.1509 H   0  0  0  0  0  0  0  0  0  0  0  0
    3.9885   -2.1187   -2.7936 H   0  0  0  0  0  0  0  0  0  0  0  0
    6.1196   -2.3812   -1.6401 H   0  0  0  0  0  0  0  0  0  0  0  0
    5.1282    0.9726    0.8387 H   0  0  0  0  0  0  0  0  0  0  0  0
    0.4595    2.0158    3.0433 H   0  0  0  0  0  0  0  0  0  0  0  0
   -0.5198    3.2595    2.2170 H   0  0  0  0  0  0  0  0  0  0  0  0
   -3.2808   -1.0433    1.8292 H   0  0  0  0  0  0  0  0  0  0  0  0
   -2.1318   -1.5723    0.5737 H   0  0  0  0  0  0  0  0  0  0  0  0
   -2.5180   -1.2161   -1.3903 H   0  0  0  0  0  0  0  0  0  0  0  0
   -3.8165   -0.1816   -2.1296 H   0  0  0  0  0  0  0  0  0  0  0  0
   -2.2649    0.5657   -1.4422 H   0  0  0  0  0  0  0  0  0  0  0  0
   -3.4924    1.5356    1.2747 H   0  0  0  0  0  0  0  0  0  0  0  0
   -3.5149    1.8741   -0.4718 H   0  0  0  0  0  0  0  0  0  0  0  0
   -5.0269    1.4215    0.3537 H   0  0  0  0  0  0  0  0  0  0  0  0
   -5.5901   -0.4918    0.7188 H   0  0  0  0  0  0  0  0  0  0  0  0
   -4.5633   -1.9676    0.3110 H   0  0  0  0  0  0  0  0  0  0  0  0
   -5.2208   -0.9735   -1.0139 H   0  0  0  0  0  0  0  0  0  0  0  0
  1  2  2  0
  2  3  1  0
  3  4  1  0
  4  5  2  0
  5  6  1  0
  6  7  2  0
  7  8  1  0
  8  9  2  0
  8 10  1  0
  2 11  1  0
 11 12  1  0
 12 13  1  0
 13 14  3  0
 14 15  1  0
 15 16  1  0
 16 17  1  0
 16 18  1  0
 16 19  1  0
  9  4  1  0
  3 21  1  0
  5 22  1  0
  6 23  1  0
  7 24  1  0
  9 25  1  0
 12 26  1  0
 12 27  1  0
 15 28  1  0
 15 29  1  0
 17 30  1  0
 17 31  1  0
 17 32  1  0
 18 33  1  0
 18 34  1  0
 18 35  1  0
 19 36  1  0
 19 37  1  0
 19 38  1  0
M  CHG  2  16   1  20  -1
M  END
>  <Ligand ID>  (1) 
LIG0005548

>  <Ligand>  (1) 
McN-A-343

>  <SMILES>  (1) 
O=C(Nc1cccc(c1)Cl)OCC#CC[N+](C)(C)C.[Cl-]

>  <CID>  (1) 
5926.0

>  <ChEMBL ID>  (1) 
nan

>  <InChiKey>  (1) 
CXFZFEJJLNLOTA-UHFFFAOYSA-N

>  <InChi>  (1) 
InChI=1S/C14H17ClN2O2.ClH/c1-17(2,3)9-4-5-10-19-14(18)16-13-8-6-7-12(15)11-13;/h6-8,11H,9-10H2,1-3H3;1H

>  <IUPAC Name>  (1) 
4-[(3-chlorophenyl)carbamoyloxy]but-2-ynyl-trimethylazanium;chloride

$$$$
