
     RDKit          3D

 65 69  0  0  0  0  0  0  0  0999 V2000
   -7.6788    1.7493    1.9703 C   0  0  0  0  0  0  0  0  0  0  0  0
   -7.4072    2.3864    0.7280 O   0  0  0  0  0  0  0  0  0  0  0  0
   -6.1696    2.2304    0.1278 C   0  0  0  0  0  0  0  0  0  0  0  0
   -5.9740    2.8720   -1.0775 C   0  0  0  0  0  0  0  0  0  0  0  0
   -4.7838    2.7939   -1.7733 C   0  0  0  0  0  0  0  0  0  0  0  0
   -3.7608    2.0514   -1.2453 C   0  0  0  0  0  0  0  0  0  0  0  0
   -3.9427    1.4000   -0.0329 C   0  0  0  0  0  0  0  0  0  0  0  0
   -5.1459    1.4808    0.6670 C   0  0  0  0  0  0  0  0  0  0  0  0
   -2.8230    0.6351    0.4743 C   0  0  0  0  0  0  0  0  0  0  0  0
   -2.2815    1.0620    1.6904 C   0  0  0  0  0  0  0  0  0  0  0  0
   -1.2145    0.3242    2.1567 C   0  0  0  0  0  0  0  0  0  0  0  0
   -0.7003    0.6859    3.2580 O   0  0  0  0  0  0  0  0  0  0  0  0
   -0.7223   -0.7504    1.4748 N   0  0  0  0  0  0  0  0  0  0  0  0
   -1.2365   -1.1514    0.3260 N   0  0  0  0  0  0  0  0  0  0  0  0
   -2.2788   -0.4591   -0.1649 C   0  0  0  0  0  0  0  0  0  0  0  0
   -2.9188   -0.8325   -1.4438 C   0  0  0  0  0  0  0  0  0  0  0  0
   -2.1694   -0.8168   -2.6014 C   0  0  0  0  0  0  0  0  0  0  0  0
   -2.7065   -1.1556   -3.8408 C   0  0  0  0  0  0  0  0  0  0  0  0
   -4.0535   -1.5153   -3.8534 C   0  0  0  0  0  0  0  0  0  0  0  0
   -4.8215   -1.5381   -2.7092 C   0  0  0  0  0  0  0  0  0  0  0  0
   -4.2489   -1.1939   -1.4957 C   0  0  0  0  0  0  0  0  0  0  0  0
   -4.5626   -1.8454   -5.0833 F   0  0  0  0  0  0  0  0  0  0  0  0
    0.4057   -1.4169    2.1003 C   0  0  0  0  0  0  0  0  0  0  0  0
    1.7224   -0.8267    1.6515 C   0  0  0  0  0  0  0  0  0  0  0  0
    1.9117   -0.9481    0.1623 C   0  0  0  0  0  0  0  0  0  0  0  0
    3.1134   -0.1746   -0.3193 C   0  0  0  0  0  0  0  0  0  0  0  0
    4.2406   -0.4731    0.5897 C   0  0  0  0  0  0  0  0  0  0  0  0
    4.1257   -1.0550    1.8282 C   0  0  0  0  0  0  0  0  0  0  0  0
    2.8238   -1.4730    2.4300 C   0  0  0  0  0  0  0  0  0  0  0  0
    5.2467   -1.2955    2.6180 C   0  0  0  0  0  0  0  0  0  0  0  0
    6.5169   -0.9654    2.2028 C   0  0  0  0  0  0  0  0  0  0  0  0
    6.6379   -0.3774    0.9533 C   0  0  0  0  0  0  0  0  0  0  0  0
    5.5293   -0.1292    0.1484 C   0  0  0  0  0  0  0  0  0  0  0  0
    5.6414    0.4590   -1.1000 O   0  0  0  0  0  0  0  0  0  0  0  0
    6.9026    0.8117   -1.6040 C   0  0  0  0  0  0  0  0  0  0  0  0
    7.8145   -0.3344   -1.8006 C   0  0  0  0  0  0  0  0  0  0  0  0
    7.5156   -1.5332   -1.6102 O   0  0  0  0  0  0  0  0  0  0  0  0
    9.1123   -0.0299   -2.2352 O   0  0  0  0  0  0  0  0  0  0  0  0
   -8.6778    2.1140    2.2750 H   0  0  0  0  0  0  0  0  0  0  0  0
   -7.6481    0.6416    1.8360 H   0  0  0  0  0  0  0  0  0  0  0  0
   -6.8719    2.0329    2.6716 H   0  0  0  0  0  0  0  0  0  0  0  0
   -6.7653    3.4656   -1.5172 H   0  0  0  0  0  0  0  0  0  0  0  0
   -4.6049    3.2855   -2.7180 H   0  0  0  0  0  0  0  0  0  0  0  0
   -2.8171    1.9725   -1.7692 H   0  0  0  0  0  0  0  0  0  0  0  0
   -5.2886    0.9768    1.6062 H   0  0  0  0  0  0  0  0  0  0  0  0
   -2.6596    1.9041    2.2345 H   0  0  0  0  0  0  0  0  0  0  0  0
   -1.1079   -0.5339   -2.5952 H   0  0  0  0  0  0  0  0  0  0  0  0
   -2.1083   -1.1369   -4.7248 H   0  0  0  0  0  0  0  0  0  0  0  0
   -5.8602   -1.8293   -2.8064 H   0  0  0  0  0  0  0  0  0  0  0  0
   -4.8515   -1.2105   -0.5907 H   0  0  0  0  0  0  0  0  0  0  0  0
    0.3263   -2.4832    1.8057 H   0  0  0  0  0  0  0  0  0  0  0  0
    0.2802   -1.3905    3.1904 H   0  0  0  0  0  0  0  0  0  0  0  0
    1.7791    0.2650    1.8742 H   0  0  0  0  0  0  0  0  0  0  0  0
    2.1306   -2.0322   -0.0364 H   0  0  0  0  0  0  0  0  0  0  0  0
    0.9811   -0.6542   -0.3566 H   0  0  0  0  0  0  0  0  0  0  0  0
    3.3186   -0.4961   -1.3618 H   0  0  0  0  0  0  0  0  0  0  0  0
    2.9063    0.9218   -0.3807 H   0  0  0  0  0  0  0  0  0  0  0  0
    2.7373   -2.5815    2.4443 H   0  0  0  0  0  0  0  0  0  0  0  0
    2.8216   -1.0939    3.4837 H   0  0  0  0  0  0  0  0  0  0  0  0
    5.1589   -1.7532    3.5938 H   0  0  0  0  0  0  0  0  0  0  0  0
    7.3602   -1.1685    2.8450 H   0  0  0  0  0  0  0  0  0  0  0  0
    7.6413   -0.1157    0.6540 H   0  0  0  0  0  0  0  0  0  0  0  0
    6.8188    1.3990   -2.5585 H   0  0  0  0  0  0  0  0  0  0  0  0
    7.4494    1.5185   -0.9178 H   0  0  0  0  0  0  0  0  0  0  0  0
    9.8920   -0.6687   -2.1627 H   0  0  0  0  0  0  0  0  0  0  0  0
  1  2  1  0
  2  3  1  0
  3  4  2  0
  4  5  1  0
  5  6  2  0
  6  7  1  0
  7  8  2  0
  7  9  1  0
  9 10  2  0
 10 11  1  0
 11 12  2  0
 11 13  1  0
 13 14  1  0
 14 15  2  0
 15 16  1  0
 16 17  2  0
 17 18  1  0
 18 19  2  0
 19 20  1  0
 20 21  2  0
 19 22  1  0
 13 23  1  0
 23 24  1  0
 24 25  1  0
 25 26  1  0
 26 27  1  0
 27 28  2  0
 28 29  1  0
 28 30  1  0
 30 31  2  0
 31 32  1  0
 32 33  2  0
 33 34  1  0
 34 35  1  0
 35 36  1  0
 36 37  2  0
 36 38  1  0
  8  3  1  0
 15  9  1  0
 21 16  1  0
 29 24  1  0
 33 27  1  0
  1 39  1  0
  1 40  1  0
  1 41  1  0
  4 42  1  0
  5 43  1  0
  6 44  1  0
  8 45  1  0
 10 46  1  0
 17 47  1  0
 18 48  1  0
 20 49  1  0
 21 50  1  0
 23 51  1  0
 23 52  1  0
 24 53  1  0
 25 54  1  0
 25 55  1  0
 26 56  1  0
 26 57  1  0
 29 58  1  0
 29 59  1  0
 30 60  1  0
 31 61  1  0
 32 62  1  0
 35 63  1  0
 35 64  1  0
 38 65  1  0
M  END
>  <Ligand ID>  (1) 
LIG0004834

>  <Ligand>  (1) 
CHEMBL3398221

>  <SMILES>  (1) 
COc1cccc(c1)c1cc(=O)n(nc1c1ccc(cc1)F)CC1CCc2c(C1)cccc2OCC(=O)O

>  <CID>  (1) 
118727300.0

>  <ChEMBL ID>  (1) 
nan

>  <InChiKey>  (1) 
LARXTYFZHYECBS-UHFFFAOYSA-N

>  <InChi>  (1) 
InChI=1S/C30H27FN2O5/c1-37-24-6-2-4-22(15-24)26-16-28(34)33(32-30(26)20-9-11-23(31)12-10-20)17-19-8-13-25-21(14-19)5-3-7-27(25)38-18-29(35)36/h2-7,9-12,15-16,19H,8,13-14,17-18H2,1H3,(H,35,36)

>  <IUPAC Name>  (1) 
2-[[6-[[3-(4-fluorophenyl)-4-(3-methoxyphenyl)-6-oxopyridazin-1-yl]methyl]-5,6,7,8-tetrahydronaphthalen-1-yl]oxy]acetic acid

$$$$
