
     RDKit          3D

 59 61  0  0  0  0  0  0  0  0999 V2000
    1.6658    1.3358    0.6197 O   0  0  0  0  0  0  0  0  0  0  0  0
    2.9889    0.8847    0.3824 C   0  0  2  0  0  0  0  0  0  0  0  0
    2.9941    0.3726   -1.0322 C   0  0  0  0  0  0  0  0  0  0  0  0
    4.1751   -0.1108   -1.5234 O   0  0  0  0  0  0  0  0  0  0  0  0
    5.3163    0.5840   -1.7174 C   0  0  0  0  0  0  0  0  0  0  0  0
    6.4202   -0.1190   -2.2061 C   0  0  0  0  0  0  0  0  0  0  0  0
    7.6293    0.4505   -2.4508 C   0  0  0  0  0  0  0  0  0  0  0  0
    7.8330    1.8074   -2.2187 C   0  0  0  0  0  0  0  0  0  0  0  0
    6.7671    2.5165   -1.7407 C   0  0  0  0  0  0  0  0  0  0  0  0
    5.5255    1.9233   -1.4916 C   0  0  0  0  0  0  0  0  0  0  0  0
    9.0636    2.3452   -2.4764 O   0  0  0  0  0  0  0  0  0  0  0  0
    3.1938   -0.3493    1.2953 C   0  0  0  0  0  0  0  0  0  0  0  0
    2.1807   -1.2798    0.8517 N   0  0  0  0  0  0  0  0  0  0  0  0
    2.1685   -2.5107    1.5558 C   0  0  0  0  0  0  0  0  0  0  0  0
    1.1019   -3.4033    0.9753 C   0  0  0  0  0  0  0  0  0  0  0  0
   -0.2047   -2.7635    1.0949 C   0  0  0  0  0  0  0  0  0  0  0  0
   -0.9394   -2.9504    2.2588 C   0  0  0  0  0  0  0  0  0  0  0  0
   -2.1850   -2.3969    2.4553 C   0  0  0  0  0  0  0  0  0  0  0  0
   -2.7792   -1.6126    1.4873 C   0  0  0  0  0  0  0  0  0  0  0  0
   -2.0675   -1.4177    0.3315 C   0  0  0  0  0  0  0  0  0  0  0  0
   -0.8004   -1.9787    0.1271 C   0  0  0  0  0  0  0  0  0  0  0  0
   -4.0551   -1.0855    1.7651 N   0  0  0  0  0  0  0  0  0  0  0  0
   -4.8198   -0.2595    0.9109 C   0  0  0  0  0  0  0  0  0  0  0  0
   -4.4425    0.1112   -0.2223 O   0  0  0  0  0  0  0  0  0  0  0  0
   -6.1784    0.2345    1.3376 C   0  0  0  0  0  0  0  0  0  0  0  0
   -6.7021    1.0728    0.2187 C   0  0  0  0  0  0  0  0  0  0  0  0
   -6.4381    2.4430    0.2330 C   0  0  0  0  0  0  0  0  0  0  0  0
   -6.9301    3.1898   -0.8075 C   0  0  0  0  0  0  0  0  0  0  0  0
   -7.6530    2.6751   -1.8411 C   0  0  0  0  0  0  0  0  0  0  0  0
   -7.9180    1.3157   -1.8604 C   0  0  0  0  0  0  0  0  0  0  0  0
   -7.4343    0.5490   -0.8273 C   0  0  0  0  0  0  0  0  0  0  0  0
    1.6953    2.1538    1.1458 H   0  0  0  0  0  0  0  0  0  0  0  0
    3.7474    1.5959    0.6533 H   0  0  0  0  0  0  0  0  0  0  0  0
    2.1918   -0.4279   -1.0917 H   0  0  0  0  0  0  0  0  0  0  0  0
    2.5564    1.1862   -1.6852 H   0  0  0  0  0  0  0  0  0  0  0  0
    6.3303   -1.1942   -2.4118 H   0  0  0  0  0  0  0  0  0  0  0  0
    8.4558   -0.1231   -2.8267 H   0  0  0  0  0  0  0  0  0  0  0  0
    6.9105    3.5758   -1.5548 H   0  0  0  0  0  0  0  0  0  0  0  0
    4.7611    2.5725   -1.1367 H   0  0  0  0  0  0  0  0  0  0  0  0
    9.8983    2.0212   -2.0260 H   0  0  0  0  0  0  0  0  0  0  0  0
    4.1936   -0.7722    1.2002 H   0  0  0  0  0  0  0  0  0  0  0  0
    2.9869    0.0153    2.3207 H   0  0  0  0  0  0  0  0  0  0  0  0
    1.2484   -0.8280    0.7481 H   0  0  0  0  0  0  0  0  0  0  0  0
    3.1295   -3.0616    1.4236 H   0  0  0  0  0  0  0  0  0  0  0  0
    2.0448   -2.4163    2.6495 H   0  0  0  0  0  0  0  0  0  0  0  0
    1.3244   -3.6399   -0.1073 H   0  0  0  0  0  0  0  0  0  0  0  0
    1.1262   -4.4276    1.4520 H   0  0  0  0  0  0  0  0  0  0  0  0
   -0.5231   -3.5465    3.0323 H   0  0  0  0  0  0  0  0  0  0  0  0
   -2.6900   -2.5990    3.4052 H   0  0  0  0  0  0  0  0  0  0  0  0
   -2.4478   -0.8306   -0.4628 H   0  0  0  0  0  0  0  0  0  0  0  0
   -0.2655   -1.8049   -0.8065 H   0  0  0  0  0  0  0  0  0  0  0  0
   -4.5128   -1.3128    2.6977 H   0  0  0  0  0  0  0  0  0  0  0  0
   -6.0527    0.8273    2.2588 H   0  0  0  0  0  0  0  0  0  0  0  0
   -6.8544   -0.6116    1.5128 H   0  0  0  0  0  0  0  0  0  0  0  0
   -5.8684    2.9052    1.0303 H   0  0  0  0  0  0  0  0  0  0  0  0
   -6.7137    4.2608   -0.7796 H   0  0  0  0  0  0  0  0  0  0  0  0
   -8.0442    3.2639   -2.6665 H   0  0  0  0  0  0  0  0  0  0  0  0
   -8.4901    0.8547   -2.6617 H   0  0  0  0  0  0  0  0  0  0  0  0
   -7.6146   -0.5171   -0.7974 H   0  0  0  0  0  0  0  0  0  0  0  0
  1  2  1  0
  2  3  1  0
  3  4  1  0
  4  5  1  0
  5  6  2  0
  6  7  1  0
  7  8  2  0
  8  9  1  0
  9 10  2  0
  8 11  1  0
  2 12  1  0
 12 13  1  0
 13 14  1  0
 14 15  1  0
 15 16  1  0
 16 17  2  0
 17 18  1  0
 18 19  2  0
 19 20  1  0
 20 21  2  0
 19 22  1  0
 22 23  1  0
 23 24  2  0
 23 25  1  0
 25 26  1  0
 26 27  2  0
 27 28  1  0
 28 29  2  0
 29 30  1  0
 30 31  2  0
 10  5  1  0
 21 16  1  0
 31 26  1  0
  1 32  1  0
  2 33  1  6
  3 34  1  0
  3 35  1  0
  6 36  1  0
  7 37  1  0
  9 38  1  0
 10 39  1  0
 11 40  1  0
 12 41  1  0
 12 42  1  0
 13 43  1  0
 14 44  1  0
 14 45  1  0
 15 46  1  0
 15 47  1  0
 17 48  1  0
 18 49  1  0
 20 50  1  0
 21 51  1  0
 22 52  1  0
 25 53  1  0
 25 54  1  0
 27 55  1  0
 28 56  1  0
 29 57  1  0
 30 58  1  0
 31 59  1  0
M  END
>  <Ligand ID>  (1) 
LIG0002667

>  <Ligand>  (1) 
CHEMBL550746

>  <SMILES>  (1) 
O[C@H](COc1ccc(cc1)O)CNCCc1ccc(cc1)NC(=O)Cc1ccccc1

>  <CID>  (1) 
44127681.0

>  <ChEMBL ID>  (1) 
nan

>  <InChiKey>  (1) 
WTJILDPFOVWTGZ-QHCPKHFHSA-N

>  <InChi>  (1) 
InChI=1S/C25H28N2O4/c28-22-10-12-24(13-11-22)31-18-23(29)17-26-15-14-19-6-8-21(9-7-19)27-25(30)16-20-4-2-1-3-5-20/h1-13,23,26,28-29H,14-18H2,(H,27,30)/t23-/m0/s1

>  <IUPAC Name>  (1) 
N-[4-[2-[[(2S)-2-hydroxy-3-(4-hydroxyphenoxy)propyl]amino]ethyl]phenyl]-2-phenylacetamide

$$$$
