
     RDKit          3D

 48 50  0  0  0  0  0  0  0  0999 V2000
   -3.2846   -3.5984    0.9998 C   0  0  0  0  0  0  0  0  0  0  0  0
   -2.4515   -2.8606    2.0204 C   0  0  0  0  0  0  0  0  0  0  0  0
   -1.7288   -1.7873    1.4494 O   0  0  0  0  0  0  0  0  0  0  0  0
   -2.3070   -0.7152    0.8064 C   0  0  0  0  0  0  0  0  0  0  0  0
   -3.5599   -0.6646    0.7074 O   0  0  0  0  0  0  0  0  0  0  0  0
   -1.4987    0.3431    0.2492 N   0  0  0  0  0  0  0  0  0  0  0  0
   -2.1807    1.4329   -0.4078 C   0  0  2  0  0  0  0  0  0  0  0  0
   -1.5642    1.8720   -1.7075 C   0  0  0  0  0  0  0  0  0  0  0  0
   -1.9056    3.2783   -1.8526 N   0  0  0  0  0  0  0  0  0  0  0  0
   -2.5489    3.7098   -0.6384 C   0  0  0  0  0  0  0  0  0  0  0  0
   -1.9594    2.7436    0.3943 C   0  0  0  0  0  0  0  0  0  0  0  0
   -0.0588    0.2538    0.3931 C   0  0  0  0  0  0  0  0  0  0  0  0
    0.6088   -0.4734   -0.6909 C   0  0  0  0  0  0  0  0  0  0  0  0
   -0.1366   -1.0605   -1.7214 C   0  0  0  0  0  0  0  0  0  0  0  0
    0.4485   -1.7745   -2.7392 C   0  0  0  0  0  0  0  0  0  0  0  0
    1.8175   -1.9239   -2.7549 C   0  0  0  0  0  0  0  0  0  0  0  0
    2.5420   -1.3577   -1.7601 C   0  0  0  0  0  0  0  0  0  0  0  0
    1.9749   -0.6223   -0.7071 C   0  0  0  0  0  0  0  0  0  0  0  0
    2.8914   -0.0802    0.2546 C   0  0  0  0  0  0  0  0  0  0  0  0
    3.7414   -0.9886    0.8997 C   0  0  0  0  0  0  0  0  0  0  0  0
    4.6778   -0.5767    1.8248 C   0  0  0  0  0  0  0  0  0  0  0  0
    4.8203    0.7545    2.1583 C   0  0  0  0  0  0  0  0  0  0  0  0
    3.9900    1.6589    1.5305 C   0  0  0  0  0  0  0  0  0  0  0  0
    3.0466    1.2342    0.5963 C   0  0  0  0  0  0  0  0  0  0  0  0
   -4.3652   -3.4776    1.1947 H   0  0  0  0  0  0  0  0  0  0  0  0
   -3.0488   -4.6770    1.0993 H   0  0  0  0  0  0  0  0  0  0  0  0
   -3.0432   -3.2243   -0.0334 H   0  0  0  0  0  0  0  0  0  0  0  0
   -1.7401   -3.5279    2.5414 H   0  0  0  0  0  0  0  0  0  0  0  0
   -3.1514   -2.4607    2.7989 H   0  0  0  0  0  0  0  0  0  0  0  0
   -3.2693    1.3044   -0.4263 H   0  0  0  0  0  0  0  0  0  0  0  0
   -0.4440    1.7840   -1.6457 H   0  0  0  0  0  0  0  0  0  0  0  0
   -1.9897    1.3016   -2.5561 H   0  0  0  0  0  0  0  0  0  0  0  0
   -1.0240    3.8239   -1.9568 H   0  0  0  0  0  0  0  0  0  0  0  0
   -2.3208    4.7671   -0.4022 H   0  0  0  0  0  0  0  0  0  0  0  0
   -3.6401    3.5067   -0.6326 H   0  0  0  0  0  0  0  0  0  0  0  0
   -0.8934    2.9977    0.4617 H   0  0  0  0  0  0  0  0  0  0  0  0
   -2.5073    2.7438    1.3352 H   0  0  0  0  0  0  0  0  0  0  0  0
    0.1234   -0.1673    1.3942 H   0  0  0  0  0  0  0  0  0  0  0  0
    0.2707    1.3317    0.3296 H   0  0  0  0  0  0  0  0  0  0  0  0
   -1.2212   -0.9787   -1.7566 H   0  0  0  0  0  0  0  0  0  0  0  0
   -0.1510   -2.2218   -3.5295 H   0  0  0  0  0  0  0  0  0  0  0  0
    2.2597   -2.4818   -3.5520 H   0  0  0  0  0  0  0  0  0  0  0  0
    3.6320   -1.4944   -1.7997 H   0  0  0  0  0  0  0  0  0  0  0  0
    3.6934   -2.0489    0.6941 H   0  0  0  0  0  0  0  0  0  0  0  0
    5.3221   -1.3133    2.3065 H   0  0  0  0  0  0  0  0  0  0  0  0
    5.5675    1.0198    2.8872 H   0  0  0  0  0  0  0  0  0  0  0  0
    4.1111    2.6948    1.7990 H   0  0  0  0  0  0  0  0  0  0  0  0
    2.4549    2.0012    0.1449 H   0  0  0  0  0  0  0  0  0  0  0  0
  1  2  1  0
  2  3  1  0
  3  4  1  0
  4  5  2  0
  4  6  1  0
  6  7  1  0
  7  8  1  0
  8  9  1  0
  9 10  1  0
 10 11  1  0
  6 12  1  0
 12 13  1  0
 13 14  2  0
 14 15  1  0
 15 16  2  0
 16 17  1  0
 17 18  2  0
 18 19  1  0
 19 20  2  0
 20 21  1  0
 21 22  2  0
 22 23  1  0
 23 24  2  0
 11  7  1  0
 18 13  1  0
 24 19  1  0
  1 25  1  0
  1 26  1  0
  1 27  1  0
  2 28  1  0
  2 29  1  0
  7 30  1  6
  8 31  1  0
  8 32  1  0
  9 33  1  0
 10 34  1  0
 10 35  1  0
 11 36  1  0
 11 37  1  0
 12 38  1  0
 12 39  1  0
 14 40  1  0
 15 41  1  0
 16 42  1  0
 17 43  1  0
 20 44  1  0
 21 45  1  0
 22 46  1  0
 23 47  1  0
 24 48  1  0
M  END
>  <Ligand ID>  (1) 
LIG0004457

>  <Ligand>  (1) 
CHEMBL478834

>  <SMILES>  (1) 
CCOC(=O)N([C@@H]1CNCC1)Cc1ccccc1c1ccccc1

>  <CID>  (1) 
24962988.0

>  <ChEMBL ID>  (1) 
nan

>  <InChiKey>  (1) 
DRWJMJVERMOJBX-SFHVURJKSA-N

>  <InChi>  (1) 
InChI=1S/C20H24N2O2/c1-2-24-20(23)22(18-12-13-21-14-18)15-17-10-6-7-11-19(17)16-8-4-3-5-9-16/h3-11,18,21H,2,12-15H2,1H3/t18-/m0/s1

>  <IUPAC Name>  (1) 
ethyl N-[(2-phenylphenyl)methyl]-N-[(3S)-pyrrolidin-3-yl]carbamate

$$$$
