
     RDKit          3D

 86 90  0  0  0  0  0  0  0  0999 V2000
    6.5596    3.0735    3.1991 C   0  0  0  0  0  0  0  0  0  0  0  0
    6.5184    1.8990    2.3194 C   0  0  0  0  0  0  0  0  0  0  0  0
    7.4834    1.0826    2.3817 O   0  0  0  0  0  0  0  0  0  0  0  0
    5.4348    1.6604    1.4115 N   0  0  0  0  0  0  0  0  0  0  0  0
    5.5396    0.4466    0.6019 C   0  0  0  0  0  0  0  0  0  0  0  0
    4.2926    0.4250   -0.2598 C   0  0  2  0  0  0  0  0  0  0  0  0
    3.0455    0.4093    0.6391 C   0  0  0  0  0  0  0  0  0  0  0  0
    1.9860   -0.2238   -0.2325 C   0  0  0  0  0  0  0  0  0  0  0  0
    2.7782   -1.2150   -1.0022 C   0  0  0  0  0  0  0  0  0  0  0  0
    4.1267   -0.8417   -1.0222 C   0  0  0  0  0  0  0  0  0  0  0  0
    4.9620   -1.6973   -1.7160 C   0  0  0  0  0  0  0  0  0  0  0  0
    4.5051   -2.8441   -2.3488 C   0  0  0  0  0  0  0  0  0  0  0  0
    5.4289   -3.7532   -3.0928 C   0  0  0  0  0  0  0  0  0  0  0  0
    3.1836   -3.1899   -2.3165 C   0  0  0  0  0  0  0  0  0  0  0  0
    2.3249   -2.3572   -1.6327 C   0  0  0  0  0  0  0  0  0  0  0  0
    2.5769   -4.6200   -3.0978 Cl  0  0  0  0  0  0  0  0  0  0  0  0
    0.9665   -0.9118    0.6525 C   0  0  0  0  0  0  0  0  0  0  0  0
   -0.4392   -0.7565    0.1096 C   0  0  0  0  0  0  0  0  0  0  0  0
   -0.7933    0.6433   -0.0468 N   0  0  0  0  0  0  0  0  0  0  0  0
    0.2854    1.5569   -0.3669 C   0  0  0  0  0  0  0  0  0  0  0  0
    1.3526    0.8152   -1.1129 C   0  0  0  0  0  0  0  0  0  0  0  0
   -2.1144    1.1374    0.0986 C   0  0  0  0  0  0  0  0  0  0  0  0
   -2.3381    2.3696   -0.0504 O   0  0  0  0  0  0  0  0  0  0  0  0
   -3.2712    0.2797    0.4215 C   0  0  2  0  0  0  0  0  0  0  0  0
   -3.5580   -0.7810   -0.6197 C   0  0  0  0  0  0  0  0  0  0  0  0
   -4.9621   -1.0986   -0.4518 N   0  0  0  0  0  0  0  0  0  0  0  0
   -5.5705   -0.1016    0.3630 C   0  0  0  0  0  0  0  0  0  0  0  0
   -4.5615    1.0354    0.4517 C   0  0  1  0  0  0  0  0  0  0  0  0
   -4.7700    1.8916    1.6175 C   0  0  0  0  0  0  0  0  0  0  0  0
   -4.1927    1.7060    2.8500 C   0  0  0  0  0  0  0  0  0  0  0  0
   -4.4151    2.5386    3.9291 C   0  0  0  0  0  0  0  0  0  0  0  0
   -5.2588    3.6228    3.7878 C   0  0  0  0  0  0  0  0  0  0  0  0
   -5.8576    3.8410    2.5616 C   0  0  0  0  0  0  0  0  0  0  0  0
   -5.6156    2.9831    1.4855 C   0  0  0  0  0  0  0  0  0  0  0  0
   -6.2499    3.2844    0.3302 F   0  0  0  0  0  0  0  0  0  0  0  0
   -5.4635    4.4271    4.8591 F   0  0  0  0  0  0  0  0  0  0  0  0
   -5.6486   -1.4620   -1.6415 C   0  0  0  0  0  0  0  0  0  0  0  0
   -7.1236   -1.7753   -1.3919 C   0  0  0  0  0  0  0  0  0  0  0  0
   -5.5799   -0.4695   -2.7646 C   0  0  0  0  0  0  0  0  0  0  0  0
   -5.0370   -2.7691   -2.1620 C   0  0  0  0  0  0  0  0  0  0  0  0
    6.7395    0.5315   -0.3160 C   0  0  0  0  0  0  0  0  0  0  0  0
    5.6420   -0.8024    1.4212 C   0  0  0  0  0  0  0  0  0  0  0  0
    5.5483    3.5264    3.2432 H   0  0  0  0  0  0  0  0  0  0  0  0
    6.8294    2.7968    4.2524 H   0  0  0  0  0  0  0  0  0  0  0  0
    7.2755    3.8520    2.8726 H   0  0  0  0  0  0  0  0  0  0  0  0
    4.6338    2.3224    1.3485 H   0  0  0  0  0  0  0  0  0  0  0  0
    4.2631    1.2979   -0.9141 H   0  0  0  0  0  0  0  0  0  0  0  0
    3.2057   -0.2010    1.5335 H   0  0  0  0  0  0  0  0  0  0  0  0
    2.7894    1.4632    0.8620 H   0  0  0  0  0  0  0  0  0  0  0  0
    6.0093   -1.5012   -1.7911 H   0  0  0  0  0  0  0  0  0  0  0  0
    6.2763   -3.1447   -3.4848 H   0  0  0  0  0  0  0  0  0  0  0  0
    4.9119   -4.2478   -3.9429 H   0  0  0  0  0  0  0  0  0  0  0  0
    5.8697   -4.4920   -2.3887 H   0  0  0  0  0  0  0  0  0  0  0  0
    1.2764   -2.6270   -1.6046 H   0  0  0  0  0  0  0  0  0  0  0  0
    1.1870   -1.9779    0.7192 H   0  0  0  0  0  0  0  0  0  0  0  0
    0.9892   -0.4231    1.6287 H   0  0  0  0  0  0  0  0  0  0  0  0
   -1.1088   -1.1333    0.9238 H   0  0  0  0  0  0  0  0  0  0  0  0
   -0.5771   -1.2788   -0.8492 H   0  0  0  0  0  0  0  0  0  0  0  0
    0.7217    1.9126    0.5941 H   0  0  0  0  0  0  0  0  0  0  0  0
   -0.0633    2.4600   -0.9015 H   0  0  0  0  0  0  0  0  0  0  0  0
    0.9572    0.3138   -2.0181 H   0  0  0  0  0  0  0  0  0  0  0  0
    2.1704    1.5273   -1.4168 H   0  0  0  0  0  0  0  0  0  0  0  0
   -3.1184   -0.2742    1.3736 H   0  0  0  0  0  0  0  0  0  0  0  0
   -3.3842   -0.2876   -1.6182 H   0  0  0  0  0  0  0  0  0  0  0  0
   -2.9191   -1.6666   -0.5386 H   0  0  0  0  0  0  0  0  0  0  0  0
   -6.5470    0.2488    0.0256 H   0  0  0  0  0  0  0  0  0  0  0  0
   -5.6440   -0.5196    1.4021 H   0  0  0  0  0  0  0  0  0  0  0  0
   -4.6804    1.6278   -0.4728 H   0  0  0  0  0  0  0  0  0  0  0  0
   -3.5361    0.8803    2.9972 H   0  0  0  0  0  0  0  0  0  0  0  0
   -3.9380    2.3468    4.8678 H   0  0  0  0  0  0  0  0  0  0  0  0
   -6.5165    4.6938    2.4645 H   0  0  0  0  0  0  0  0  0  0  0  0
   -7.7646   -0.8775   -1.4731 H   0  0  0  0  0  0  0  0  0  0  0  0
   -7.4360   -2.4366   -2.2277 H   0  0  0  0  0  0  0  0  0  0  0  0
   -7.2587   -2.3505   -0.4566 H   0  0  0  0  0  0  0  0  0  0  0  0
   -4.6264   -0.5683   -3.3606 H   0  0  0  0  0  0  0  0  0  0  0  0
   -6.3755   -0.7906   -3.4981 H   0  0  0  0  0  0  0  0  0  0  0  0
   -5.8119    0.5603   -2.4930 H   0  0  0  0  0  0  0  0  0  0  0  0
   -5.8080   -3.4789   -2.5136 H   0  0  0  0  0  0  0  0  0  0  0  0
   -4.3853   -2.5592   -3.0388 H   0  0  0  0  0  0  0  0  0  0  0  0
   -4.4906   -3.2716   -1.3331 H   0  0  0  0  0  0  0  0  0  0  0  0
    7.4345    1.3588    0.0168 H   0  0  0  0  0  0  0  0  0  0  0  0
    7.3410   -0.3842   -0.1777 H   0  0  0  0  0  0  0  0  0  0  0  0
    6.4907    0.7833   -1.3590 H   0  0  0  0  0  0  0  0  0  0  0  0
    6.6626   -1.2263    1.4975 H   0  0  0  0  0  0  0  0  0  0  0  0
    5.0183   -1.6178    0.9646 H   0  0  0  0  0  0  0  0  0  0  0  0
    5.2170   -0.6264    2.4391 H   0  0  0  0  0  0  0  0  0  0  0  0
  1  2  1  0
  2  3  2  0
  2  4  1  0
  4  5  1  0
  5  6  1  0
  6  7  1  0
  7  8  1  0
  8  9  1  0
  9 10  2  0
 10 11  1  0
 11 12  2  0
 12 13  1  0
 12 14  1  0
 14 15  2  0
 14 16  1  0
  8 17  1  0
 17 18  1  0
 18 19  1  0
 19 20  1  0
 20 21  1  0
 19 22  1  0
 22 23  2  0
 22 24  1  0
 24 25  1  0
 25 26  1  0
 26 27  1  0
 27 28  1  0
 28 29  1  0
 29 30  2  0
 30 31  1  0
 31 32  2  0
 32 33  1  0
 33 34  2  0
 34 35  1  0
 32 36  1  0
 26 37  1  0
 37 38  1  0
 37 39  1  0
 37 40  1  0
  5 41  1  0
  5 42  1  0
 10  6  1  0
 28 24  1  0
 34 29  1  0
 21  8  1  0
 15  9  1  0
  1 43  1  0
  1 44  1  0
  1 45  1  0
  4 46  1  0
  6 47  1  6
  7 48  1  0
  7 49  1  0
 11 50  1  0
 13 51  1  0
 13 52  1  0
 13 53  1  0
 15 54  1  0
 17 55  1  0
 17 56  1  0
 18 57  1  0
 18 58  1  0
 20 59  1  0
 20 60  1  0
 21 61  1  0
 21 62  1  0
 24 63  1  1
 25 64  1  0
 25 65  1  0
 27 66  1  0
 27 67  1  0
 28 68  1  6
 30 69  1  0
 31 70  1  0
 33 71  1  0
 38 72  1  0
 38 73  1  0
 38 74  1  0
 39 75  1  0
 39 76  1  0
 39 77  1  0
 40 78  1  0
 40 79  1  0
 40 80  1  0
 41 81  1  0
 41 82  1  0
 41 83  1  0
 42 84  1  0
 42 85  1  0
 42 86  1  0
M  END
>  <Ligand ID>  (1) 
LIG0000590

>  <Ligand>  (1) 
MK-0489

>  <SMILES>  (1) 
CC(=O)NC([C@@H]1CC2(c3c1cc(C)c(c3)Cl)CCN(CC2)C(=O)[C@@H]1CN(C[C@H]1c1ccc(cc1F)F)C(C)(C)C)(C)C

>  <CID>  (1) 
11753695.0

>  <ChEMBL ID>  (1) 
nan

>  <InChiKey>  (1) 
KMNARKQYUZICHM-ZRRKCSAHSA-N

>  <InChi>  (1) 
InChI=1S/C34H44ClF2N3O2/c1-20-14-24-27(16-29(20)35)34(17-28(24)33(6,7)38-21(2)41)10-12-39(13-11-34)31(42)26-19-40(32(3,4)5)18-25(26)23-9-8-22(36)15-30(23)37/h8-9,14-16,25-26,28H,10-13,17-19H2,1-7H3,(H,38,41)/t25-,26+,28+/m0/s1

>  <IUPAC Name>  (1) 
N-[2-[(1R)-1'-[(3S,4R)-1-tert-butyl-4-(2,4-difluorophenyl)pyrrolidine-3-carbonyl]-5-chloro-6-methylspiro[1,2-dihydroindene-3,4'-piperidine]-1-yl]propan-2-yl]acetamide

$$$$
