
     RDKit          3D

 27 26  0  0  0  0  0  0  0  0999 V2000
   -2.7468    0.5241   -1.4697 C   0  0  0  0  0  0  0  0  0  0  0  0
   -2.6006   -0.0533   -0.0965 C   0  0  0  0  0  0  0  0  0  0  0  0
   -1.1737   -0.4451    0.2365 C   0  0  0  0  0  0  0  0  0  0  0  0
   -0.3322    0.7919    0.1444 C   0  0  0  0  0  0  0  0  0  0  0  0
    1.0976    0.5610    0.4462 C   0  0  0  0  0  0  0  0  0  0  0  0
    1.6212    1.2058    1.4351 N   0  0  0  0  0  0  0  0  0  0  0  0
    2.9160    1.1112    1.8463 O   0  0  0  0  0  0  0  0  0  0  0  0
    1.8451   -0.3736   -0.3759 C   0  0  0  0  0  0  0  0  0  0  0  0
    3.2882   -0.5252    0.0263 C   0  0  0  0  0  0  0  0  0  0  0  0
   -1.2061   -1.0597    1.6051 C   0  0  0  0  0  0  0  0  0  0  0  0
   -3.7068    0.1545   -1.9230 H   0  0  0  0  0  0  0  0  0  0  0  0
   -2.8648    1.6225   -1.3876 H   0  0  0  0  0  0  0  0  0  0  0  0
   -1.9509    0.2230   -2.1707 H   0  0  0  0  0  0  0  0  0  0  0  0
   -3.2982   -0.9247    0.0263 H   0  0  0  0  0  0  0  0  0  0  0  0
   -2.9229    0.6879    0.6812 H   0  0  0  0  0  0  0  0  0  0  0  0
   -0.8864   -1.1848   -0.5567 H   0  0  0  0  0  0  0  0  0  0  0  0
   -0.7220    1.5414    0.8546 H   0  0  0  0  0  0  0  0  0  0  0  0
   -0.4587    1.1823   -0.8933 H   0  0  0  0  0  0  0  0  0  0  0  0
    3.5802    1.8639    1.8457 H   0  0  0  0  0  0  0  0  0  0  0  0
    1.4239   -1.4089   -0.3803 H   0  0  0  0  0  0  0  0  0  0  0  0
    1.8217   -0.0289   -1.4508 H   0  0  0  0  0  0  0  0  0  0  0  0
    3.8929    0.4040   -0.1020 H   0  0  0  0  0  0  0  0  0  0  0  0
    3.8124   -1.2698   -0.6451 H   0  0  0  0  0  0  0  0  0  0  0  0
    3.3849   -0.9798    1.0326 H   0  0  0  0  0  0  0  0  0  0  0  0
   -2.0224   -0.5722    2.1955 H   0  0  0  0  0  0  0  0  0  0  0  0
   -1.5046   -2.1286    1.5070 H   0  0  0  0  0  0  0  0  0  0  0  0
   -0.2868   -0.9190    2.1794 H   0  0  0  0  0  0  0  0  0  0  0  0
  1  2  1  0
  2  3  1  0
  3  4  1  0
  4  5  1  0
  5  6  2  0
  6  7  1  0
  5  8  1  0
  8  9  1  0
  3 10  1  0
  1 11  1  0
  1 12  1  0
  1 13  1  0
  2 14  1  0
  2 15  1  0
  3 16  1  0
  4 17  1  0
  4 18  1  0
  7 19  1  0
  8 20  1  0
  8 21  1  0
  9 22  1  0
  9 23  1  0
  9 24  1  0
 10 25  1  0
 10 26  1  0
 10 27  1  0
M  END
>  <Ligand ID>  (1) 
LIG0005011

>  <Ligand>  (1) 
(NE)-N-(5-methylheptan-3-ylidene)hydroxylamine

>  <SMILES>  (1) 
CCC(C/C(=N/O)/CC)C

>  <CID>  (1) 
6386962.0

>  <ChEMBL ID>  (1) 
nan

>  <InChiKey>  (1) 
CBVWMGCJNPPAAR-CMDGGOBGSA-N

>  <InChi>  (1) 
InChI=1S/C8H17NO/c1-4-7(3)6-8(5-2)9-10/h7,10H,4-6H2,1-3H3/b9-8+

>  <IUPAC Name>  (1) 
(NE)-N-(5-methylheptan-3-ylidene)hydroxylamine

$$$$
