
     RDKit          3D

 48 50  0  0  0  0  0  0  0  0999 V2000
   -0.2475    0.4866    0.9792 O   0  0  0  0  0  0  0  0  0  0  0  0
   -0.0982    0.5222    2.2311 C   0  0  0  0  0  0  0  0  0  0  0  0
   -1.0860    1.0892    3.0823 N   0  0  0  0  0  0  0  0  0  0  0  0
   -2.2810    1.6323    2.4860 C   0  0  0  0  0  0  0  0  0  0  0  0
   -2.3696    1.5635    1.2020 N   0  0  0  0  0  0  0  0  0  0  0  0
   -3.4683    2.0426    0.4233 C   0  0  0  0  0  0  0  0  0  0  0  0
   -4.7810    1.3918    0.8221 C   0  0  0  0  0  0  0  0  0  0  0  0
   -4.6373   -0.0959    0.6098 C   0  0  0  0  0  0  0  0  0  0  0  0
   -4.3405   -0.3446   -0.8238 C   0  0  0  0  0  0  0  0  0  0  0  0
   -3.0862   -0.4061   -1.3948 C   0  0  0  0  0  0  0  0  0  0  0  0
   -3.2454   -0.6486   -2.7083 N   0  0  0  0  0  0  0  0  0  0  0  0
   -4.5681   -0.7391   -2.9660 C   0  0  0  0  0  0  0  0  0  0  0  0
   -5.2329   -0.5508   -1.8013 N   0  0  0  0  0  0  0  0  0  0  0  0
   -3.2960    2.2106    3.3081 N   0  0  0  0  0  0  0  0  0  0  0  0
    1.1180   -0.0267    2.8819 C   0  0  0  0  0  0  0  0  0  0  0  0
    2.0515   -0.5761    1.9267 N   0  0  0  0  0  0  0  0  0  0  0  0
    2.5686    0.3035    0.9383 C   0  0  0  0  0  0  0  0  0  0  0  0
    2.1934    1.5045    0.9422 O   0  0  0  0  0  0  0  0  0  0  0  0
    3.5185   -0.1183   -0.0871 C   0  0  0  0  0  0  0  0  0  0  0  0
    4.0112    0.7497   -1.0400 C   0  0  0  0  0  0  0  0  0  0  0  0
    4.8812    0.0165   -1.8452 C   0  0  0  0  0  0  0  0  0  0  0  0
    4.8916   -1.2723   -1.3591 C   0  0  0  0  0  0  0  0  0  0  0  0
    4.0582   -1.3274   -0.2944 N   0  0  0  0  0  0  0  0  0  0  0  0
    5.6946   -2.1989   -2.0057 C   0  0  0  0  0  0  0  0  0  0  0  0
    6.4590   -1.8209   -3.1092 C   0  0  0  0  0  0  0  0  0  0  0  0
    6.4321   -0.5078   -3.5841 C   0  0  0  0  0  0  0  0  0  0  0  0
    5.6332    0.4148   -2.9411 C   0  0  0  0  0  0  0  0  0  0  0  0
   -0.9533    1.1139    4.1180 H   0  0  0  0  0  0  0  0  0  0  0  0
   -3.5864    3.1403    0.6479 H   0  0  0  0  0  0  0  0  0  0  0  0
   -3.2477    1.9331   -0.6367 H   0  0  0  0  0  0  0  0  0  0  0  0
   -5.0820    1.6459    1.8391 H   0  0  0  0  0  0  0  0  0  0  0  0
   -5.6100    1.7155    0.1605 H   0  0  0  0  0  0  0  0  0  0  0  0
   -3.7904   -0.4933    1.2168 H   0  0  0  0  0  0  0  0  0  0  0  0
   -5.5277   -0.6558    0.9710 H   0  0  0  0  0  0  0  0  0  0  0  0
   -2.1266   -0.2911   -0.9336 H   0  0  0  0  0  0  0  0  0  0  0  0
   -5.0278   -0.9279   -3.9269 H   0  0  0  0  0  0  0  0  0  0  0  0
   -6.2645   -0.5573   -1.6476 H   0  0  0  0  0  0  0  0  0  0  0  0
   -3.8257    1.5665    3.9572 H   0  0  0  0  0  0  0  0  0  0  0  0
   -3.5099    3.2499    3.2680 H   0  0  0  0  0  0  0  0  0  0  0  0
    1.5456    0.7591    3.5121 H   0  0  0  0  0  0  0  0  0  0  0  0
    0.7814   -0.8447    3.5488 H   0  0  0  0  0  0  0  0  0  0  0  0
    2.3570   -1.5870    1.9364 H   0  0  0  0  0  0  0  0  0  0  0  0
    3.8058    1.8052   -1.1918 H   0  0  0  0  0  0  0  0  0  0  0  0
    3.8490   -2.1620    0.2907 H   0  0  0  0  0  0  0  0  0  0  0  0
    5.7250   -3.2240   -1.6467 H   0  0  0  0  0  0  0  0  0  0  0  0
    7.0875   -2.5540   -3.6120 H   0  0  0  0  0  0  0  0  0  0  0  0
    7.0250   -0.2155   -4.4400 H   0  0  0  0  0  0  0  0  0  0  0  0
    5.6024    1.4512   -3.3040 H   0  0  0  0  0  0  0  0  0  0  0  0
  1  2  2  0
  2  3  1  0
  3  4  1  0
  4  5  2  3
  5  6  1  0
  6  7  1  0
  7  8  1  0
  8  9  1  0
  9 10  2  0
 10 11  1  0
 11 12  2  0
 12 13  1  0
  4 14  1  0
  2 15  1  0
 15 16  1  0
 16 17  1  0
 17 18  2  0
 17 19  1  0
 19 20  2  0
 20 21  1  0
 21 22  2  0
 22 23  1  0
 22 24  1  0
 24 25  2  0
 25 26  1  0
 26 27  2  0
 13  9  1  0
 23 19  1  0
 27 21  1  0
  3 28  1  0
  6 29  1  0
  6 30  1  0
  7 31  1  0
  7 32  1  0
  8 33  1  0
  8 34  1  0
 10 35  1  0
 12 36  1  0
 13 37  1  0
 14 38  1  0
 14 39  1  0
 15 40  1  0
 15 41  1  0
 16 42  1  0
 20 43  1  0
 23 44  1  0
 24 45  1  0
 25 46  1  0
 26 47  1  0
 27 48  1  0
M  END
>  <Ligand ID>  (1) 
LIG0002742

>  <Ligand>  (1) 
CHEMBL474449

>  <SMILES>  (1) 
O=C(NC(=NCCCc1cnc[nH]1)N)CNC(=O)c1cc2c([nH]1)cccc2

>  <CID>  (1) 
42625222.0

>  <ChEMBL ID>  (1) 
nan

>  <InChiKey>  (1) 
PIWSSTXHMGKDJO-UHFFFAOYSA-N

>  <InChi>  (1) 
InChI=1S/C18H21N7O2/c19-18(21-7-3-5-13-9-20-11-23-13)25-16(26)10-22-17(27)15-8-12-4-1-2-6-14(12)24-15/h1-2,4,6,8-9,11,24H,3,5,7,10H2,(H,20,23)(H,22,27)(H3,19,21,25,26)

>  <IUPAC Name>  (1) 
N-[2-[[N'-[3-(1H-imidazol-5-yl)propyl]carbamimidoyl]amino]-2-oxoethyl]-1H-indole-2-carboxamide

$$$$
