
     RDKit          3D

 54 56  0  0  0  0  0  0  0  0999 V2000
    9.1729    2.0923   -0.6538 C   0  0  0  0  0  0  0  0  0  0  0  0
    7.7627    1.9342   -0.5202 O   0  0  0  0  0  0  0  0  0  0  0  0
    7.1801    0.7033   -0.2872 C   0  0  0  0  0  0  0  0  0  0  0  0
    7.9579   -0.2851   -0.1961 O   0  0  0  0  0  0  0  0  0  0  0  0
    5.7599    0.4750   -0.1438 C   0  0  0  0  0  0  0  0  0  0  0  0
    5.3297   -0.8158    0.0840 C   0  0  0  0  0  0  0  0  0  0  0  0
    3.9902   -1.1433    0.2283 C   0  0  0  0  0  0  0  0  0  0  0  0
    3.0407   -0.1208    0.1385 C   0  0  0  0  0  0  0  0  0  0  0  0
    3.4454    1.1715   -0.0869 C   0  0  0  0  0  0  0  0  0  0  0  0
    4.8050    1.4833   -0.2299 C   0  0  0  0  0  0  0  0  0  0  0  0
    1.6858   -0.5295    0.2777 N   0  0  0  0  0  0  0  0  0  0  0  0
    0.9645   -0.6061    1.4080 C   0  0  0  0  0  0  0  0  0  0  0  0
    1.4545   -0.2496    2.7668 C   0  0  0  0  0  0  0  0  0  0  0  0
   -0.2838   -1.0722    1.0321 C   0  0  0  0  0  0  0  0  0  0  0  0
   -0.3445   -1.2847   -0.3200 C   0  0  0  0  0  0  0  0  0  0  0  0
    0.9268   -0.9315   -0.7863 C   0  0  0  0  0  0  0  0  0  0  0  0
    1.4276   -0.9720   -2.1902 C   0  0  0  0  0  0  0  0  0  0  0  0
   -1.3880   -1.7720   -1.1892 C   0  0  0  0  0  0  0  0  0  0  0  0
   -1.0796   -1.8693   -2.4308 O   0  0  0  0  0  0  0  0  0  0  0  0
   -2.7450   -2.1742   -0.8419 C   0  0  0  0  0  0  0  0  0  0  0  0
   -3.3006   -1.8576    0.8063 S   0  0  0  0  0  0  0  0  0  0  0  0
   -3.5980   -0.1244    1.1916 C   0  0  0  0  0  0  0  0  0  0  0  0
   -4.7561    0.3419    0.3766 C   0  0  0  0  0  0  0  0  0  0  0  0
   -4.5943    0.9354   -0.8701 C   0  0  0  0  0  0  0  0  0  0  0  0
   -5.7177    1.3313   -1.5692 C   0  0  0  0  0  0  0  0  0  0  0  0
   -6.9736    1.1297   -1.0181 C   0  0  0  0  0  0  0  0  0  0  0  0
   -7.1550    0.5446    0.2118 C   0  0  0  0  0  0  0  0  0  0  0  0
   -6.0383    0.1516    0.9073 C   0  0  0  0  0  0  0  0  0  0  0  0
   -8.5465    0.3573    0.7317 C   0  0  0  0  0  0  0  0  0  0  0  0
    9.4088    3.1283   -0.3378 H   0  0  0  0  0  0  0  0  0  0  0  0
    9.4709    2.0553   -1.7346 H   0  0  0  0  0  0  0  0  0  0  0  0
    9.7304    1.3207   -0.0820 H   0  0  0  0  0  0  0  0  0  0  0  0
    6.0295   -1.6421    0.1615 H   0  0  0  0  0  0  0  0  0  0  0  0
    3.6828   -2.1831    0.4109 H   0  0  0  0  0  0  0  0  0  0  0  0
    2.6796    1.9373   -0.1494 H   0  0  0  0  0  0  0  0  0  0  0  0
    5.1267    2.4959   -0.4072 H   0  0  0  0  0  0  0  0  0  0  0  0
    0.8827   -0.8153    3.5365 H   0  0  0  0  0  0  0  0  0  0  0  0
    2.5327   -0.4092    2.8175 H   0  0  0  0  0  0  0  0  0  0  0  0
    1.2625    0.8469    2.8806 H   0  0  0  0  0  0  0  0  0  0  0  0
   -1.0648   -1.2385    1.7510 H   0  0  0  0  0  0  0  0  0  0  0  0
    1.4632   -2.0087   -2.5816 H   0  0  0  0  0  0  0  0  0  0  0  0
    0.7648   -0.3083   -2.7931 H   0  0  0  0  0  0  0  0  0  0  0  0
    2.4418   -0.5334   -2.2598 H   0  0  0  0  0  0  0  0  0  0  0  0
   -3.4213   -1.5893   -1.5421 H   0  0  0  0  0  0  0  0  0  0  0  0
   -2.8878   -3.2747   -1.0490 H   0  0  0  0  0  0  0  0  0  0  0  0
   -2.7190    0.5092    0.8961 H   0  0  0  0  0  0  0  0  0  0  0  0
   -3.8208   -0.0480    2.2679 H   0  0  0  0  0  0  0  0  0  0  0  0
   -3.6001    1.0807   -1.2764 H   0  0  0  0  0  0  0  0  0  0  0  0
   -5.6486    1.8049   -2.5553 H   0  0  0  0  0  0  0  0  0  0  0  0
   -7.8563    1.4447   -1.5751 H   0  0  0  0  0  0  0  0  0  0  0  0
   -6.1722   -0.3055    1.8663 H   0  0  0  0  0  0  0  0  0  0  0  0
   -9.0188    1.3345    0.9847 H   0  0  0  0  0  0  0  0  0  0  0  0
   -9.1347   -0.2151   -0.0171 H   0  0  0  0  0  0  0  0  0  0  0  0
   -8.5150   -0.2306    1.6716 H   0  0  0  0  0  0  0  0  0  0  0  0
  1  2  1  0
  2  3  1  0
  3  4  2  0
  3  5  1  0
  5  6  2  0
  6  7  1  0
  7  8  2  0
  8  9  1  0
  9 10  2  0
  8 11  1  0
 11 12  1  0
 12 13  1  0
 12 14  2  0
 14 15  1  0
 15 16  2  0
 16 17  1  0
 15 18  1  0
 18 19  2  0
 18 20  1  0
 20 21  1  0
 21 22  1  0
 22 23  1  0
 23 24  2  0
 24 25  1  0
 25 26  2  0
 26 27  1  0
 27 28  2  0
 27 29  1  0
 10  5  1  0
 16 11  1  0
 28 23  1  0
  1 30  1  0
  1 31  1  0
  1 32  1  0
  6 33  1  0
  7 34  1  0
  9 35  1  0
 10 36  1  0
 13 37  1  0
 13 38  1  0
 13 39  1  0
 14 40  1  0
 17 41  1  0
 17 42  1  0
 17 43  1  0
 20 44  1  0
 20 45  1  0
 22 46  1  0
 22 47  1  0
 24 48  1  0
 25 49  1  0
 26 50  1  0
 28 51  1  0
 29 52  1  0
 29 53  1  0
 29 54  1  0
M  END
>  <Ligand ID>  (1) 
LIG0003773

>  <Ligand>  (1) 
CHEMBL3561819

>  <SMILES>  (1) 
COC(=O)c1ccc(cc1)n1c(C)cc(c1C)C(=O)CSCc1cccc(c1)C

>  <CID>  (1) 
73058454.0

>  <ChEMBL ID>  (1) 
nan

>  <InChiKey>  (1) 
FPZRLVWMYYWLRU-UHFFFAOYSA-N

>  <InChi>  (1) 
InChI=1S/C24H25NO3S/c1-16-6-5-7-19(12-16)14-29-15-23(26)22-13-17(2)25(18(22)3)21-10-8-20(9-11-21)24(27)28-4/h5-13H,14-15H2,1-4H3

>  <IUPAC Name>  (1) 
methyl 4-[2,5-dimethyl-3-[2-[(3-methylphenyl)methylsulfanyl]acetyl]pyrrol-1-yl]benzoate

$$$$
