
     RDKit          3D

 17 17  0  0  0  0  0  0  0  0999 V2000
    2.6652    0.2125   -0.3043 C   0  0  0  0  0  0  0  0  0  0  0  0
    1.5720   -0.7913   -0.1895 C   0  0  0  0  0  0  0  0  0  0  0  0
    1.8434   -2.0363   -0.2321 O   0  0  0  0  0  0  0  0  0  0  0  0
    0.1879   -0.3363   -0.0280 C   0  0  0  0  0  0  0  0  0  0  0  0
   -0.1043    1.0182    0.0180 C   0  0  0  0  0  0  0  0  0  0  0  0
   -1.4270    1.3860    0.1717 C   0  0  0  0  0  0  0  0  0  0  0  0
   -2.4483    0.4401    0.2789 C   0  0  0  0  0  0  0  0  0  0  0  0
   -2.1525   -0.9069    0.2326 C   0  0  0  0  0  0  0  0  0  0  0  0
   -0.8177   -1.2807    0.0774 C   0  0  0  0  0  0  0  0  0  0  0  0
    2.4867    0.8273   -1.2049 H   0  0  0  0  0  0  0  0  0  0  0  0
    2.5384    0.8649    0.5999 H   0  0  0  0  0  0  0  0  0  0  0  0
    3.6334   -0.3068   -0.3173 H   0  0  0  0  0  0  0  0  0  0  0  0
    0.6781    1.7430   -0.0642 H   0  0  0  0  0  0  0  0  0  0  0  0
   -1.7215    2.4455    0.2151 H   0  0  0  0  0  0  0  0  0  0  0  0
   -3.4736    0.7208    0.3980 H   0  0  0  0  0  0  0  0  0  0  0  0
   -2.9159   -1.6689    0.3122 H   0  0  0  0  0  0  0  0  0  0  0  0
   -0.5444   -2.3309    0.0365 H   0  0  0  0  0  0  0  0  0  0  0  0
  1  2  1  0
  2  3  2  0
  2  4  1  0
  4  5  2  0
  5  6  1  0
  6  7  2  0
  7  8  1  0
  8  9  2  0
  9  4  1  0
  1 10  1  0
  1 11  1  0
  1 12  1  0
  5 13  1  0
  6 14  1  0
  7 15  1  0
  8 16  1  0
  9 17  1  0
M  END
>  <Ligand ID>  (1) 
LIG0000016

>  <Ligand>  (1) 
acetophenone

>  <SMILES>  (1) 
CC(=O)c1ccccc1

>  <CID>  (1) 
7410.0

>  <ChEMBL ID>  (1) 
nan

>  <InChiKey>  (1) 
KWOLFJPFCHCOCG-UHFFFAOYSA-N

>  <InChi>  (1) 
InChI=1S/C8H8O/c1-7(9)8-5-3-2-4-6-8/h2-6H,1H3

>  <IUPAC Name>  (1) 
1-phenylethanone

$$$$
