
     RDKit          3D

 30 31  0  0  0  0  0  0  0  0999 V2000
    3.3768   -2.2468    1.6389 N   0  0  0  0  0  0  0  0  0  0  0  0
    3.2574   -0.8783    1.2734 C   0  0  0  0  0  0  0  0  0  0  0  0
    3.4330    0.2269    2.4591 S   0  0  0  0  0  0  0  0  0  0  0  0
    2.9916   -0.4844   -0.0922 N   0  0  0  0  0  0  0  0  0  0  0  0
    2.8920    0.8551   -0.3562 N   0  0  0  0  0  0  0  0  0  0  0  0
    1.8716    1.5894   -0.5137 C   0  0  0  0  0  0  0  0  0  0  0  0
    0.4912    1.1620   -0.4481 C   0  0  0  0  0  0  0  0  0  0  0  0
    0.0778   -0.1311   -0.2000 C   0  0  0  0  0  0  0  0  0  0  0  0
   -1.2807   -0.4776   -0.1498 C   0  0  0  0  0  0  0  0  0  0  0  0
   -1.6657   -1.7823    0.1009 C   0  0  0  0  0  0  0  0  0  0  0  0
   -3.0212   -2.0457    0.1348 C   0  0  0  0  0  0  0  0  0  0  0  0
   -3.9753   -1.0674   -0.0693 C   0  0  0  0  0  0  0  0  0  0  0  0
   -3.5608    0.2402   -0.3202 C   0  0  0  0  0  0  0  0  0  0  0  0
   -2.2077    0.5157   -0.3566 C   0  0  0  0  0  0  0  0  0  0  0  0
   -1.7576    1.7172   -0.5862 O   0  0  0  0  0  0  0  0  0  0  0  0
   -0.5061    2.0847   -0.6420 C   0  0  0  0  0  0  0  0  0  0  0  0
   -0.3036    3.3104   -0.8795 O   0  0  0  0  0  0  0  0  0  0  0  0
   -5.3482   -1.3489   -0.0321 O   0  0  0  0  0  0  0  0  0  0  0  0
    2.1394    3.0399   -0.7946 C   0  0  0  0  0  0  0  0  0  0  0  0
    3.0036   -2.6061    2.5666 H   0  0  0  0  0  0  0  0  0  0  0  0
    3.8428   -2.9224    0.9823 H   0  0  0  0  0  0  0  0  0  0  0  0
    2.9067   -1.2614   -0.8001 H   0  0  0  0  0  0  0  0  0  0  0  0
    0.7509   -0.9410   -0.0325 H   0  0  0  0  0  0  0  0  0  0  0  0
   -0.9078   -2.5375    0.2588 H   0  0  0  0  0  0  0  0  0  0  0  0
   -3.3181   -3.0520    0.3282 H   0  0  0  0  0  0  0  0  0  0  0  0
   -4.2584    1.0434   -0.4868 H   0  0  0  0  0  0  0  0  0  0  0  0
   -5.7371   -2.2022   -0.4039 H   0  0  0  0  0  0  0  0  0  0  0  0
    1.7964    3.3545   -1.7967 H   0  0  0  0  0  0  0  0  0  0  0  0
    3.2474    3.2121   -0.8298 H   0  0  0  0  0  0  0  0  0  0  0  0
    1.7698    3.6334    0.0475 H   0  0  0  0  0  0  0  0  0  0  0  0
  1  2  1  0
  2  3  2  0
  2  4  1  0
  4  5  1  0
  5  6  2  0
  6  7  1  0
  7  8  2  0
  8  9  1  0
  9 10  2  0
 10 11  1  0
 11 12  2  0
 12 13  1  0
 13 14  2  0
 14 15  1  0
 15 16  1  0
 16 17  2  0
 12 18  1  0
  6 19  1  0
 16  7  1  0
 14  9  1  0
  1 20  1  0
  1 21  1  0
  4 22  1  0
  8 23  1  0
 10 24  1  0
 11 25  1  0
 13 26  1  0
 18 27  1  0
 19 28  1  0
 19 29  1  0
 19 30  1  0
M  END
>  <Ligand ID>  (1) 
LIG0005567

>  <Ligand>  (1) 
MLS000777400

>  <SMILES>  (1) 
NC(=S)N/N=C(\c1cc2ccc(cc2oc1=O)O)/C

>  <CID>  (1) 
135656247.0

>  <ChEMBL ID>  (1) 
nan

>  <InChiKey>  (1) 
JGGMVWOFVXGNGI-NSIKDUERSA-N

>  <InChi>  (1) 
InChI=1S/C12H11N3O3S/c1-6(14-15-12(13)19)9-4-7-2-3-8(16)5-10(7)18-11(9)17/h2-5,16H,1H3,(H3,13,15,19)/b14-6-

>  <IUPAC Name>  (1) 
[(Z)-1-(7-hydroxy-2-oxochromen-3-yl)ethylideneamino]thiourea

$$$$
