
     RDKit          3D

 51 54  0  0  0  0  0  0  0  0999 V2000
    1.5732    0.7917    1.2150 O   0  0  0  0  0  0  0  0  0  0  0  0
    1.1852    0.1961    0.1847 C   0  0  0  0  0  0  0  0  0  0  0  0
   -0.0339   -0.4808    0.0254 N   0  0  0  0  0  0  0  0  0  0  0  0
   -0.3176   -1.1942   -1.2634 C   0  0  0  0  0  0  0  0  0  0  0  0
   -0.6182   -2.6360   -0.9381 C   0  0  2  0  0  0  0  0  0  0  0  0
   -1.6859   -3.1352   -1.9234 C   0  0  0  0  0  0  0  0  0  0  0  0
   -2.2753   -4.2888   -1.0984 C   0  0  0  0  0  0  0  0  0  0  0  0
   -2.3597   -3.6227    0.2585 C   0  0  0  0  0  0  0  0  0  0  0  0
   -1.0718   -2.9662    0.3339 N   0  0  0  0  0  0  0  0  0  0  0  0
   -0.9521   -2.0738    1.4388 C   0  0  0  0  0  0  0  0  0  0  0  0
   -1.0826   -0.6323    0.9903 C   0  0  1  0  0  0  0  0  0  0  0  0
   -1.3858    0.3822    1.9765 C   0  0  0  0  0  0  0  0  0  0  0  0
   -1.8262    1.6474    1.3578 C   0  0  0  0  0  0  0  0  0  0  0  0
   -1.0828    2.7440    1.0857 C   0  0  0  0  0  0  0  0  0  0  0  0
   -1.6434    3.8567    0.4743 C   0  0  0  0  0  0  0  0  0  0  0  0
   -2.9728    3.9069    0.1149 C   0  0  0  0  0  0  0  0  0  0  0  0
   -3.7367    2.7979    0.3878 C   0  0  0  0  0  0  0  0  0  0  0  0
   -3.1820    1.7045    0.9892 C   0  0  0  0  0  0  0  0  0  0  0  0
    2.1449    0.2289   -0.9783 C   0  0  0  0  0  0  0  0  0  0  0  0
    3.3634    0.9744   -0.6409 C   0  0  0  0  0  0  0  0  0  0  0  0
    3.4124    2.3336   -0.8798 C   0  0  0  0  0  0  0  0  0  0  0  0
    4.5715    2.9993   -0.5505 C   0  0  0  0  0  0  0  0  0  0  0  0
    5.6702    2.3433    0.0060 C   0  0  0  0  0  0  0  0  0  0  0  0
    5.6234    0.9799    0.2466 C   0  0  0  0  0  0  0  0  0  0  0  0
    4.4639    0.3178   -0.0836 C   0  0  0  0  0  0  0  0  0  0  0  0
   -1.2338   -0.7169   -1.6419 H   0  0  0  0  0  0  0  0  0  0  0  0
    0.4916   -1.0875   -1.9710 H   0  0  0  0  0  0  0  0  0  0  0  0
    0.2732   -3.2859   -1.1802 H   0  0  0  0  0  0  0  0  0  0  0  0
   -2.4933   -2.4211   -2.0788 H   0  0  0  0  0  0  0  0  0  0  0  0
   -1.2392   -3.4995   -2.8662 H   0  0  0  0  0  0  0  0  0  0  0  0
   -1.5118   -5.0804   -1.0445 H   0  0  0  0  0  0  0  0  0  0  0  0
   -3.2502   -4.6051   -1.5026 H   0  0  0  0  0  0  0  0  0  0  0  0
   -2.5622   -4.3240    1.0683 H   0  0  0  0  0  0  0  0  0  0  0  0
   -3.1276   -2.8160    0.1757 H   0  0  0  0  0  0  0  0  0  0  0  0
    0.0224   -2.1656    1.9517 H   0  0  0  0  0  0  0  0  0  0  0  0
   -1.7449   -2.2810    2.1671 H   0  0  0  0  0  0  0  0  0  0  0  0
   -2.0712   -0.6774    0.3515 H   0  0  0  0  0  0  0  0  0  0  0  0
   -2.2605   -0.0040    2.5843 H   0  0  0  0  0  0  0  0  0  0  0  0
   -0.6081    0.5544    2.7607 H   0  0  0  0  0  0  0  0  0  0  0  0
   -0.0499    2.8100    1.3376 H   0  0  0  0  0  0  0  0  0  0  0  0
   -1.0205    4.7348    0.2628 H   0  0  0  0  0  0  0  0  0  0  0  0
   -3.4421    4.7444   -0.3574 H   0  0  0  0  0  0  0  0  0  0  0  0
   -4.7868    2.7964    0.1215 H   0  0  0  0  0  0  0  0  0  0  0  0
   -3.8435    0.8557    1.1785 H   0  0  0  0  0  0  0  0  0  0  0  0
    2.4250   -0.8324   -1.1560 H   0  0  0  0  0  0  0  0  0  0  0  0
    1.6873    0.6961   -1.8657 H   0  0  0  0  0  0  0  0  0  0  0  0
    2.5502    2.8142   -1.3101 H   0  0  0  0  0  0  0  0  0  0  0  0
    4.6446    4.0800   -0.7271 H   0  0  0  0  0  0  0  0  0  0  0  0
    6.5798    2.8773    0.2622 H   0  0  0  0  0  0  0  0  0  0  0  0
    6.4405    0.4240    0.6734 H   0  0  0  0  0  0  0  0  0  0  0  0
    4.3496   -0.7647    0.0771 H   0  0  0  0  0  0  0  0  0  0  0  0
  1  2  2  0
  2  3  1  0
  3  4  1  0
  4  5  1  0
  5  6  1  0
  6  7  1  0
  7  8  1  0
  8  9  1  0
  9 10  1  0
 10 11  1  0
 11 12  1  0
 12 13  1  0
 13 14  2  0
 14 15  1  0
 15 16  2  0
 16 17  1  0
 17 18  2  0
  2 19  1  0
 19 20  1  0
 20 21  2  0
 21 22  1  0
 22 23  2  0
 23 24  1  0
 24 25  2  0
 11  3  1  0
 18 13  1  0
 25 20  1  0
  9  5  1  0
  4 26  1  0
  4 27  1  0
  5 28  1  6
  6 29  1  0
  6 30  1  0
  7 31  1  0
  7 32  1  0
  8 33  1  0
  8 34  1  0
 10 35  1  0
 10 36  1  0
 11 37  1  6
 12 38  1  0
 12 39  1  0
 14 40  1  0
 15 41  1  0
 16 42  1  0
 17 43  1  0
 18 44  1  0
 19 45  1  0
 19 46  1  0
 21 47  1  0
 22 48  1  0
 23 49  1  0
 24 50  1  0
 25 51  1  0
M  END
>  <Ligand ID>  (1) 
LIG0001303

>  <Ligand>  (1) 
CHEMBL373821

>  <SMILES>  (1) 
O=C(N1C[C@@H]2CCCN2C[C@H]1Cc1ccccc1)Cc1ccccc1

>  <CID>  (1) 
44418431.0

>  <ChEMBL ID>  (1) 
nan

>  <InChiKey>  (1) 
QXRXXIKAVZAGHZ-LEWJYISDSA-N

>  <InChi>  (1) 
InChI=1S/C22H26N2O/c25-22(15-19-10-5-2-6-11-19)24-17-20-12-7-13-23(20)16-21(24)14-18-8-3-1-4-9-18/h1-6,8-11,20-21H,7,12-17H2/t20-,21+/m0/s1

>  <IUPAC Name>  (1) 
1-[(3R,8aS)-3-benzyl-3,4,6,7,8,8a-hexahydro-1H-pyrrolo[1,2-a]pyrazin-2-yl]-2-phenylethanone

$$$$
