
     RDKit          3D

 95 98  0  0  0  0  0  0  0  0999 V2000
   -1.6366    7.2671    0.4352 N   0  0  0  0  0  0  0  0  0  0  0  0
   -0.5618    6.6766   -0.2757 C   0  0  0  0  0  0  0  0  0  0  0  0
   -0.3872    5.4165   -0.4234 N   0  0  0  0  0  0  0  0  0  0  0  0
   -1.2965    4.4245    0.1378 C   0  0  0  0  0  0  0  0  0  0  0  0
   -1.8447    3.4890   -0.8905 C   0  0  0  0  0  0  0  0  0  0  0  0
   -2.7647    2.5009   -0.2745 C   0  0  0  0  0  0  0  0  0  0  0  0
   -2.1019    1.5681    0.7508 C   0  0  1  0  0  0  0  0  0  0  0  0
   -3.1995    0.6860    1.2746 C   0  0  0  0  0  0  0  0  0  0  0  0
   -4.0239    1.2985    2.0433 O   0  0  0  0  0  0  0  0  0  0  0  0
   -3.3501   -0.6673    0.9812 N   0  0  0  0  0  0  0  0  0  0  0  0
   -4.5110   -1.3617    1.5980 C   0  0  2  0  0  0  0  0  0  0  0  0
   -4.0050   -2.5810    2.2227 C   0  0  0  0  0  0  0  0  0  0  0  0
   -4.7092   -3.3278    2.9582 O   0  0  0  0  0  0  0  0  0  0  0  0
   -2.6538   -3.0047    2.0308 N   0  0  0  0  0  0  0  0  0  0  0  0
   -5.5279   -1.6427    0.5429 C   0  0  0  0  0  0  0  0  0  0  0  0
   -6.7553   -2.3215    0.9058 C   0  0  0  0  0  0  0  0  0  0  0  0
   -7.9304   -1.6304    1.2649 C   0  0  0  0  0  0  0  0  0  0  0  0
   -8.8856   -2.4924    1.5813 N   0  0  0  0  0  0  0  0  0  0  0  0
   -8.4224   -3.7405    1.4557 C   0  0  0  0  0  0  0  0  0  0  0  0
   -7.1071   -3.6457    1.0384 C   0  0  0  0  0  0  0  0  0  0  0  0
   -6.3877   -4.8028    0.8107 C   0  0  0  0  0  0  0  0  0  0  0  0
   -6.9766   -6.0292    1.0003 C   0  0  0  0  0  0  0  0  0  0  0  0
   -8.3096   -6.1111    1.4251 C   0  0  0  0  0  0  0  0  0  0  0  0
   -9.0454   -4.9671    1.6567 C   0  0  0  0  0  0  0  0  0  0  0  0
   -1.1908    0.7510   -0.0700 N   0  0  0  0  0  0  0  0  0  0  0  0
    0.1974    0.8462    0.0358 C   0  0  0  0  0  0  0  0  0  0  0  0
    0.7004    1.6759    0.8664 O   0  0  0  0  0  0  0  0  0  0  0  0
    1.1893    0.0580   -0.7423 C   0  0  2  0  0  0  0  0  0  0  0  0
    2.5305    0.5423   -0.4988 N   0  0  0  0  0  0  0  0  0  0  0  0
    3.4896   -0.1206    0.3042 C   0  0  0  0  0  0  0  0  0  0  0  0
    3.2352   -1.2110    0.8748 O   0  0  0  0  0  0  0  0  0  0  0  0
    4.8176    0.5324    0.4489 C   0  0  2  0  0  0  0  0  0  0  0  0
    5.6234    0.5155   -0.8362 C   0  0  0  0  0  0  0  0  0  0  0  0
    6.9227    1.2094   -0.5325 C   0  0  0  0  0  0  0  0  0  0  0  0
    8.0415    0.6123   -0.0728 N   0  0  0  0  0  0  0  0  0  0  0  0
    8.9617    1.6031    0.0509 C   0  0  0  0  0  0  0  0  0  0  0  0
    8.4233    2.7765   -0.3220 N   0  0  0  0  0  0  0  0  0  0  0  0
    7.1523    2.5684   -0.6922 C   0  0  0  0  0  0  0  0  0  0  0  0
    5.5870   -0.2942    1.3841 N   0  0  0  0  0  0  0  0  0  0  0  0
    6.0747    0.4096    2.5449 C   0  0  0  0  0  0  0  0  0  0  0  0
    5.8525    1.6316    2.7325 O   0  0  0  0  0  0  0  0  0  0  0  0
    6.8644   -0.4246    3.5062 C   0  0  0  0  0  0  0  0  0  0  0  0
    0.9303   -0.0269   -2.2034 C   0  0  0  0  0  0  0  0  0  0  0  0
    1.9980   -0.8462   -2.8634 C   0  0  0  0  0  0  0  0  0  0  0  0
    3.1462   -0.2371   -3.3861 C   0  0  0  0  0  0  0  0  0  0  0  0
    4.0906   -1.0790   -3.9807 C   0  0  0  0  0  0  0  0  0  0  0  0
    3.9142   -2.4404   -4.0552 C   0  0  0  0  0  0  0  0  0  0  0  0
    2.7753   -3.0481   -3.5370 C   0  0  0  0  0  0  0  0  0  0  0  0
    1.8419   -2.2290   -2.9514 C   0  0  0  0  0  0  0  0  0  0  0  0
    4.9056   -3.2708   -4.6716 N   0  0  0  0  0  0  0  0  0  0  0  0
    0.4026    7.5493   -0.8685 N   0  0  0  0  0  0  0  0  0  0  0  0
   -2.0690    8.1574    0.0400 H   0  0  0  0  0  0  0  0  0  0  0  0
   -2.0439    6.9072    1.3131 H   0  0  0  0  0  0  0  0  0  0  0  0
   -2.1585    5.0111    0.5895 H   0  0  0  0  0  0  0  0  0  0  0  0
   -0.8503    3.8750    0.9591 H   0  0  0  0  0  0  0  0  0  0  0  0
   -2.4710    4.1060   -1.5991 H   0  0  0  0  0  0  0  0  0  0  0  0
   -1.0606    2.9559   -1.4588 H   0  0  0  0  0  0  0  0  0  0  0  0
   -3.6578    3.0035    0.1964 H   0  0  0  0  0  0  0  0  0  0  0  0
   -3.2149    1.8654   -1.0777 H   0  0  0  0  0  0  0  0  0  0  0  0
   -1.5917    2.1371    1.5216 H   0  0  0  0  0  0  0  0  0  0  0  0
   -2.6852   -1.1714    0.3639 H   0  0  0  0  0  0  0  0  0  0  0  0
   -4.9195   -0.6476    2.3551 H   0  0  0  0  0  0  0  0  0  0  0  0
   -2.2872   -3.3482    1.1123 H   0  0  0  0  0  0  0  0  0  0  0  0
   -2.0413   -2.9449    2.8939 H   0  0  0  0  0  0  0  0  0  0  0  0
   -5.8040   -0.6260    0.1147 H   0  0  0  0  0  0  0  0  0  0  0  0
   -5.0303   -2.1252   -0.3685 H   0  0  0  0  0  0  0  0  0  0  0  0
   -8.0656   -0.5491    1.2893 H   0  0  0  0  0  0  0  0  0  0  0  0
   -9.8733   -2.2547    1.8900 H   0  0  0  0  0  0  0  0  0  0  0  0
   -5.3748   -4.6956    0.4886 H   0  0  0  0  0  0  0  0  0  0  0  0
   -6.4162   -6.9370    0.8233 H   0  0  0  0  0  0  0  0  0  0  0  0
   -8.8000   -7.0633    1.5842 H   0  0  0  0  0  0  0  0  0  0  0  0
  -10.0933   -5.0161    1.9891 H   0  0  0  0  0  0  0  0  0  0  0  0
   -1.5956    0.0856   -0.7559 H   0  0  0  0  0  0  0  0  0  0  0  0
    1.1092   -0.9804   -0.3139 H   0  0  0  0  0  0  0  0  0  0  0  0
    2.7815    1.4524   -0.9649 H   0  0  0  0  0  0  0  0  0  0  0  0
    4.7786    1.5553    0.8098 H   0  0  0  0  0  0  0  0  0  0  0  0
    5.1053    1.0214   -1.6655 H   0  0  0  0  0  0  0  0  0  0  0  0
    5.8880   -0.5068   -1.1643 H   0  0  0  0  0  0  0  0  0  0  0  0
    8.1590   -0.4143    0.1406 H   0  0  0  0  0  0  0  0  0  0  0  0
    9.9778    1.4133    0.4072 H   0  0  0  0  0  0  0  0  0  0  0  0
    6.5041    3.3457   -1.0323 H   0  0  0  0  0  0  0  0  0  0  0  0
    5.7689   -1.3065    1.2279 H   0  0  0  0  0  0  0  0  0  0  0  0
    7.8222   -0.6713    3.0174 H   0  0  0  0  0  0  0  0  0  0  0  0
    7.0356    0.2336    4.4079 H   0  0  0  0  0  0  0  0  0  0  0  0
    6.2717   -1.3214    3.7848 H   0  0  0  0  0  0  0  0  0  0  0  0
   -0.0248   -0.5345   -2.4507 H   0  0  0  0  0  0  0  0  0  0  0  0
    0.9518    0.9631   -2.6877 H   0  0  0  0  0  0  0  0  0  0  0  0
    3.2826    0.8324   -3.3273 H   0  0  0  0  0  0  0  0  0  0  0  0
    4.9611   -0.5844   -4.3734 H   0  0  0  0  0  0  0  0  0  0  0  0
    2.6452   -4.1097   -3.5995 H   0  0  0  0  0  0  0  0  0  0  0  0
    0.9462   -2.7236   -2.5440 H   0  0  0  0  0  0  0  0  0  0  0  0
    4.7043   -4.2690   -4.9300 H   0  0  0  0  0  0  0  0  0  0  0  0
    5.8677   -2.9379   -4.8971 H   0  0  0  0  0  0  0  0  0  0  0  0
    0.6858    8.3724   -0.2617 H   0  0  0  0  0  0  0  0  0  0  0  0
    0.7990    7.3899   -1.8227 H   0  0  0  0  0  0  0  0  0  0  0  0
  1  2  1  0
  2  3  2  3
  3  4  1  0
  4  5  1  0
  5  6  1  0
  6  7  1  0
  7  8  1  0
  8  9  2  0
  8 10  1  0
 10 11  1  0
 11 12  1  0
 12 13  2  0
 12 14  1  0
 11 15  1  0
 15 16  1  0
 16 17  2  0
 17 18  1  0
 18 19  1  0
 19 20  2  0
 20 21  1  0
 21 22  2  0
 22 23  1  0
 23 24  2  0
  7 25  1  0
 25 26  1  0
 26 27  2  0
 26 28  1  0
 28 29  1  0
 29 30  1  0
 30 31  2  0
 30 32  1  0
 32 33  1  0
 33 34  1  0
 34 35  1  0
 35 36  1  0
 36 37  2  0
 37 38  1  0
 32 39  1  0
 39 40  1  0
 40 41  2  0
 40 42  1  0
 28 43  1  0
 43 44  1  0
 44 45  2  0
 45 46  1  0
 46 47  2  0
 47 48  1  0
 48 49  2  0
 47 50  1  0
  2 51  1  0
 20 16  1  0
 38 34  2  0
 49 44  1  0
 24 19  1  0
  1 52  1  0
  1 53  1  0
  4 54  1  0
  4 55  1  0
  5 56  1  0
  5 57  1  0
  6 58  1  0
  6 59  1  0
  7 60  1  1
 10 61  1  0
 11 62  1  1
 14 63  1  0
 14 64  1  0
 15 65  1  0
 15 66  1  0
 17 67  1  0
 18 68  1  0
 21 69  1  0
 22 70  1  0
 23 71  1  0
 24 72  1  0
 25 73  1  0
 28 74  1  1
 29 75  1  0
 32 76  1  1
 33 77  1  0
 33 78  1  0
 35 79  1  0
 36 80  1  0
 38 81  1  0
 39 82  1  0
 42 83  1  0
 42 84  1  0
 42 85  1  0
 43 86  1  0
 43 87  1  0
 45 88  1  0
 46 89  1  0
 48 90  1  0
 49 91  1  0
 50 92  1  0
 50 93  1  0
 51 94  1  0
 51 95  1  0
M  END
>  <Ligand ID>  (1) 
LIG0001432

>  <Ligand>  (1) 
CHEMBL500516

>  <SMILES>  (1) 
NC(=NCCC[C@@H](C(=O)N[C@H](C(=O)N)Cc1c[nH]c2c1cccc2)NC(=O)[C@H](NC(=O)[C@H](Cc1[nH]cnc1)NC(=O)C)Cc1ccc(cc1)N)N

>  <CID>  (1) 
25108085.0

>  <ChEMBL ID>  (1) 
nan

>  <InChiKey>  (1) 
JRFFLTFJJPSALV-FKWFRFQNSA-N

>  <InChi>  (1) 
InChI=1S/C34H44N12O5/c1-19(47)43-29(15-23-17-39-18-42-23)33(51)46-28(13-20-8-10-22(35)11-9-20)32(50)44-26(7-4-12-40-34(37)38)31(49)45-27(30(36)48)14-21-16-41-25-6-3-2-5-24(21)25/h2-3,5-6,8-11,16-18,26-29,41H,4,7,12-15,35H2,1H3,(H2,36,48)(H,39,42)(H,43,47)(H,44,50)(H,45,49)(H,46,51)(H4,37,38,40)/t26-,27-,28+,29-/m0/s1

>  <IUPAC Name>  (1) 
(2S)-2-[[(2R)-2-[[(2S)-2-acetamido-3-(1H-imidazol-5-yl)propanoyl]amino]-3-(4-aminophenyl)propanoyl]amino]-N-[(2S)-1-amino-3-(1H-indol-3-yl)-1-oxopropan-2-yl]-5-(diaminomethylideneamino)pentanamide

$$$$
