
     RDKit          3D

 99102  0  0  0  0  0  0  0  0999 V2000
    6.2982    2.3477    4.1372 C   0  0  0  0  0  0  0  0  0  0  0  0
    6.3387    1.3743    2.9688 C   0  0  0  0  0  0  0  0  0  0  0  0
    5.3710    1.7792    1.8939 C   0  0  0  0  0  0  0  0  0  0  0  0
    4.6758    2.8188    2.0766 O   0  0  0  0  0  0  0  0  0  0  0  0
    5.2928    0.9702    0.7372 N   0  0  0  0  0  0  0  0  0  0  0  0
    4.3617    1.2861   -0.3654 C   0  0  2  0  0  0  0  0  0  0  0  0
    3.4796    0.0703   -0.4672 C   0  0  0  0  0  0  0  0  0  0  0  0
    3.7700   -0.8295    0.3784 O   0  0  0  0  0  0  0  0  0  0  0  0
    2.4370   -0.0658   -1.3983 N   0  0  0  0  0  0  0  0  0  0  0  0
    1.5645   -1.1495   -1.5979 C   0  0  2  0  0  0  0  0  0  0  0  0
    0.1480   -0.7508   -1.6360 C   0  0  0  0  0  0  0  0  0  0  0  0
   -0.0886    0.4728   -1.9087 O   0  0  0  0  0  0  0  0  0  0  0  0
   -0.9605   -1.5732   -1.4013 N   0  0  0  0  0  0  0  0  0  0  0  0
   -2.3467   -1.1595   -1.4739 C   0  0  2  0  0  0  0  0  0  0  0  0
   -2.6027   -0.2128   -0.2944 C   0  0  0  0  0  0  0  0  0  0  0  0
   -1.6945    0.0556    0.5206 O   0  0  0  0  0  0  0  0  0  0  0  0
   -3.9214    0.2995   -0.2383 N   0  0  0  0  0  0  0  0  0  0  0  0
   -4.3413    1.2415    0.8299 C   0  0  2  0  0  0  0  0  0  0  0  0
   -5.2879    0.4990    1.6731 C   0  0  0  0  0  0  0  0  0  0  0  0
   -5.7288    1.0005    2.7200 O   0  0  0  0  0  0  0  0  0  0  0  0
   -5.7546   -0.8241    1.3523 N   0  0  0  0  0  0  0  0  0  0  0  0
   -4.8808    2.4532    0.1761 C   0  0  0  0  0  0  0  0  0  0  0  0
   -5.3850    3.5402    1.0016 C   0  0  0  0  0  0  0  0  0  0  0  0
   -4.6544    4.6465    1.3948 C   0  0  0  0  0  0  0  0  0  0  0  0
   -5.3908    5.4540    2.1726 N   0  0  0  0  0  0  0  0  0  0  0  0
   -6.6042    4.9123    2.3109 C   0  0  0  0  0  0  0  0  0  0  0  0
   -6.6401    3.7228    1.5972 C   0  0  0  0  0  0  0  0  0  0  0  0
   -7.8147    3.0113    1.6002 C   0  0  0  0  0  0  0  0  0  0  0  0
   -8.9362    3.4119    2.2644 C   0  0  0  0  0  0  0  0  0  0  0  0
   -8.8934    4.6136    2.9846 C   0  0  0  0  0  0  0  0  0  0  0  0
   -7.7270    5.3430    2.9945 C   0  0  0  0  0  0  0  0  0  0  0  0
   -3.3004   -2.2914   -1.4279 C   0  0  0  0  0  0  0  0  0  0  0  0
   -3.1872   -3.0996   -0.1525 C   0  0  0  0  0  0  0  0  0  0  0  0
   -4.1940   -4.2293   -0.2158 C   0  0  0  0  0  0  0  0  0  0  0  0
   -4.1485   -5.0222    0.9639 N   0  0  0  0  0  0  0  0  0  0  0  0
   -3.6955   -6.1711    1.1765 C   0  0  0  0  0  0  0  0  0  0  0  0
   -3.8186   -6.6837    2.5291 N   0  0  0  0  0  0  0  0  0  0  0  0
   -3.0729   -7.0411    0.2495 N   0  0  0  0  0  0  0  0  0  0  0  0
    1.8622   -2.5448   -1.2499 C   0  0  0  0  0  0  0  0  0  0  0  0
    3.0090   -3.1018   -1.9980 C   0  0  0  0  0  0  0  0  0  0  0  0
    4.2771   -3.3034   -1.5949 C   0  0  0  0  0  0  0  0  0  0  0  0
    5.3094   -3.7865   -2.3931 C   0  0  0  0  0  0  0  0  0  0  0  0
    5.0293   -4.0958   -3.7282 C   0  0  0  0  0  0  0  0  0  0  0  0
    3.7352   -3.8979   -4.1663 C   0  0  0  0  0  0  0  0  0  0  0  0
    2.7311   -3.4175   -3.3518 C   0  0  0  0  0  0  0  0  0  0  0  0
    5.1826    1.3928   -1.6240 C   0  0  0  0  0  0  0  0  0  0  0  0
    6.2392    2.4302   -1.5720 C   0  0  0  0  0  0  0  0  0  0  0  0
    7.5427    2.1783   -1.2029 C   0  0  0  0  0  0  0  0  0  0  0  0
    8.5229    3.1535   -1.1525 C   0  0  0  0  0  0  0  0  0  0  0  0
    8.2068    4.4686   -1.4867 C   0  0  0  0  0  0  0  0  0  0  0  0
    6.8939    4.7410   -1.8620 C   0  0  0  0  0  0  0  0  0  0  0  0
    5.9510    3.7564   -1.9015 C   0  0  0  0  0  0  0  0  0  0  0  0
    9.4297    5.7149   -1.4306 Cl  0  0  0  0  0  0  0  0  0  0  0  0
    7.3004    2.5309    4.5812 H   0  0  0  0  0  0  0  0  0  0  0  0
    5.6688    1.8832    4.9352 H   0  0  0  0  0  0  0  0  0  0  0  0
    5.8406    3.3034    3.8026 H   0  0  0  0  0  0  0  0  0  0  0  0
    6.0806    0.3489    3.3464 H   0  0  0  0  0  0  0  0  0  0  0  0
    7.3821    1.3111    2.6035 H   0  0  0  0  0  0  0  0  0  0  0  0
    5.8973    0.1035    0.6100 H   0  0  0  0  0  0  0  0  0  0  0  0
    3.7881    2.1923   -0.1617 H   0  0  0  0  0  0  0  0  0  0  0  0
    2.3016    0.7904   -2.0400 H   0  0  0  0  0  0  0  0  0  0  0  0
    1.7407   -1.2781   -2.8078 H   0  0  0  0  0  0  0  0  0  0  0  0
   -0.8146   -2.5915   -1.1411 H   0  0  0  0  0  0  0  0  0  0  0  0
   -2.5558   -0.4937   -2.3274 H   0  0  0  0  0  0  0  0  0  0  0  0
   -4.6348    0.0255   -0.9512 H   0  0  0  0  0  0  0  0  0  0  0  0
   -3.3839    1.4589    1.3944 H   0  0  0  0  0  0  0  0  0  0  0  0
   -5.5267   -1.5649    2.0449 H   0  0  0  0  0  0  0  0  0  0  0  0
   -6.2884   -1.0362    0.4832 H   0  0  0  0  0  0  0  0  0  0  0  0
   -5.6667    2.1227   -0.5499 H   0  0  0  0  0  0  0  0  0  0  0  0
   -4.0736    2.8650   -0.5153 H   0  0  0  0  0  0  0  0  0  0  0  0
   -3.6183    4.8412    1.1114 H   0  0  0  0  0  0  0  0  0  0  0  0
   -5.0523    6.3599    2.5960 H   0  0  0  0  0  0  0  0  0  0  0  0
   -7.7976    2.0739    1.0236 H   0  0  0  0  0  0  0  0  0  0  0  0
   -9.8511    2.8098    2.2346 H   0  0  0  0  0  0  0  0  0  0  0  0
   -9.7867    4.9311    3.5131 H   0  0  0  0  0  0  0  0  0  0  0  0
   -7.6735    6.2927    3.5502 H   0  0  0  0  0  0  0  0  0  0  0  0
   -4.3427   -1.9267   -1.4995 H   0  0  0  0  0  0  0  0  0  0  0  0
   -3.1736   -2.9961   -2.2734 H   0  0  0  0  0  0  0  0  0  0  0  0
   -3.4597   -2.4540    0.7265 H   0  0  0  0  0  0  0  0  0  0  0  0
   -2.1987   -3.5235    0.0066 H   0  0  0  0  0  0  0  0  0  0  0  0
   -5.2332   -3.8174   -0.2869 H   0  0  0  0  0  0  0  0  0  0  0  0
   -4.0097   -4.8631   -1.1315 H   0  0  0  0  0  0  0  0  0  0  0  0
   -4.7237   -6.6076    3.0245 H   0  0  0  0  0  0  0  0  0  0  0  0
   -2.9703   -7.1301    2.9900 H   0  0  0  0  0  0  0  0  0  0  0  0
   -2.0769   -6.8645   -0.0432 H   0  0  0  0  0  0  0  0  0  0  0  0
   -3.6131   -7.8513   -0.1338 H   0  0  0  0  0  0  0  0  0  0  0  0
    1.9135   -2.7680   -0.1641 H   0  0  0  0  0  0  0  0  0  0  0  0
    0.9891   -3.1461   -1.5860 H   0  0  0  0  0  0  0  0  0  0  0  0
    4.5432   -3.1114   -0.5728 H   0  0  0  0  0  0  0  0  0  0  0  0
    6.3052   -3.9392   -2.0599 H   0  0  0  0  0  0  0  0  0  0  0  0
    5.8262   -4.4690   -4.3512 H   0  0  0  0  0  0  0  0  0  0  0  0
    3.4902   -4.1298   -5.1989 H   0  0  0  0  0  0  0  0  0  0  0  0
    1.7409   -3.2855   -3.7609 H   0  0  0  0  0  0  0  0  0  0  0  0
    4.5018    1.5468   -2.5115 H   0  0  0  0  0  0  0  0  0  0  0  0
    5.7362    0.4265   -1.8099 H   0  0  0  0  0  0  0  0  0  0  0  0
    7.7618    1.1277   -0.9471 H   0  0  0  0  0  0  0  0  0  0  0  0
    9.5098    2.8421   -0.8544 H   0  0  0  0  0  0  0  0  0  0  0  0
    6.6858    5.7713   -2.1169 H   0  0  0  0  0  0  0  0  0  0  0  0
    4.9328    3.9809   -2.1935 H   0  0  0  0  0  0  0  0  0  0  0  0
  1  2  1  0
  2  3  1  0
  3  4  2  0
  3  5  1  0
  5  6  1  0
  6  7  1  0
  7  8  2  0
  7  9  1  0
  9 10  1  0
 10 11  1  0
 11 12  2  0
 11 13  1  0
 13 14  1  0
 14 15  1  0
 15 16  2  0
 15 17  1  0
 17 18  1  0
 18 19  1  0
 19 20  2  0
 19 21  1  0
 18 22  1  0
 22 23  1  0
 23 24  2  0
 24 25  1  0
 25 26  1  0
 26 27  2  0
 27 28  1  0
 28 29  2  0
 29 30  1  0
 30 31  2  0
 14 32  1  0
 32 33  1  0
 33 34  1  0
 34 35  1  0
 35 36  2  3
 36 37  1  0
 36 38  1  0
 10 39  1  0
 39 40  1  0
 40 41  2  0
 41 42  1  0
 42 43  2  0
 43 44  1  0
 44 45  2  0
  6 46  1  0
 46 47  1  0
 47 48  2  0
 48 49  1  0
 49 50  2  0
 50 51  1  0
 51 52  2  0
 50 53  1  0
 27 23  1  0
 45 40  1  0
 52 47  1  0
 31 26  1  0
  1 54  1  0
  1 55  1  0
  1 56  1  0
  2 57  1  0
  2 58  1  0
  5 59  1  0
  6 60  1  1
  9 61  1  0
 10 62  1  6
 13 63  1  0
 14 64  1  6
 17 65  1  0
 18 66  1  1
 21 67  1  0
 21 68  1  0
 22 69  1  0
 22 70  1  0
 24 71  1  0
 25 72  1  0
 28 73  1  0
 29 74  1  0
 30 75  1  0
 31 76  1  0
 32 77  1  0
 32 78  1  0
 33 79  1  0
 33 80  1  0
 34 81  1  0
 34 82  1  0
 37 83  1  0
 37 84  1  0
 38 85  1  0
 38 86  1  0
 39 87  1  0
 39 88  1  0
 41 89  1  0
 42 90  1  0
 43 91  1  0
 44 92  1  0
 45 93  1  0
 46 94  1  0
 46 95  1  0
 48 96  1  0
 49 97  1  0
 51 98  1  0
 52 99  1  0
M  END
>  <Ligand ID>  (1) 
LIG0004038

>  <Ligand>  (1) 
CHEMBL183476

>  <SMILES>  (1) 
CCC(=O)N[C@H](C(=O)N[C@H](C(=O)N[C@H](C(=O)N[C@H](C(=O)N)Cc1c[nH]c2c1cccc2)CCCN=C(N)N)Cc1ccccc1)Cc1ccc(cc1)Cl

>  <CID>  (1) 
44394626.0

>  <ChEMBL ID>  (1) 
nan

>  <InChiKey>  (1) 
ZLHQEJQUZMHZAP-YDPTYEFTSA-N

>  <InChi>  (1) 
InChI=1S/C38H46ClN9O5/c1-2-33(49)45-31(20-24-14-16-26(39)17-15-24)36(52)48-32(19-23-9-4-3-5-10-23)37(53)46-29(13-8-18-43-38(41)42)35(51)47-30(34(40)50)21-25-22-44-28-12-7-6-11-27(25)28/h3-7,9-12,14-17,22,29-32,44H,2,8,13,18-21H2,1H3,(H2,40,50)(H,45,49)(H,46,53)(H,47,51)(H,48,52)(H4,41,42,43)/t29-,30-,31-,32-/m0/s1

>  <IUPAC Name>  (1) 
(2S)-N-[(2S)-1-amino-3-(1H-indol-3-yl)-1-oxopropan-2-yl]-2-[[(2S)-2-[[(2S)-3-(4-chlorophenyl)-2-(propanoylamino)propanoyl]amino]-3-phenylpropanoyl]amino]-5-(diaminomethylideneamino)pentanamide

$$$$
