
     RDKit          3D

 69 74  0  0  0  0  0  0  0  0999 V2000
   -2.6033   -7.2859    0.1783 Cl  0  0  0  0  0  0  0  0  0  0  0  0
   -1.9387   -5.6619    0.1389 C   0  0  0  0  0  0  0  0  0  0  0  0
   -1.9286   -4.8546    1.2544 C   0  0  0  0  0  0  0  0  0  0  0  0
   -1.4000   -3.5611    1.2336 C   0  0  0  0  0  0  0  0  0  0  0  0
   -0.8706   -3.0849    0.0417 C   0  0  0  0  0  0  0  0  0  0  0  0
   -0.8642   -3.8760   -1.1100 C   0  0  0  0  0  0  0  0  0  0  0  0
   -1.4013   -5.1679   -1.0552 C   0  0  0  0  0  0  0  0  0  0  0  0
   -0.1961   -3.2804   -2.6207 Cl  0  0  0  0  0  0  0  0  0  0  0  0
   -0.3364   -1.7830    0.0228 N   0  0  0  0  0  0  0  0  0  0  0  0
    0.9793   -1.5513   -0.0878 N   0  0  0  0  0  0  0  0  0  0  0  0
    1.2296   -0.2310   -0.0751 C   0  0  0  0  0  0  0  0  0  0  0  0
   -0.0015    0.4228    0.0523 C   0  0  0  0  0  0  0  0  0  0  0  0
   -0.9310   -0.5916    0.1072 C   0  0  0  0  0  0  0  0  0  0  0  0
   -2.3603   -0.2377    0.2394 C   0  0  0  0  0  0  0  0  0  0  0  0
   -3.2924   -1.0958   -0.1391 C   0  0  0  0  0  0  0  0  0  0  0  0
   -4.7132   -0.8082   -0.0288 C   0  0  0  0  0  0  0  0  0  0  0  0
   -5.3216   -0.3103    1.0993 C   0  0  0  0  0  0  0  0  0  0  0  0
   -6.6753   -0.0481    1.0925 C   0  0  0  0  0  0  0  0  0  0  0  0
   -7.4822   -0.2587   -0.0029 C   0  0  0  0  0  0  0  0  0  0  0  0
   -6.8682   -0.7622   -1.1435 C   0  0  0  0  0  0  0  0  0  0  0  0
   -5.4968   -1.0372   -1.1645 C   0  0  0  0  0  0  0  0  0  0  0  0
   -8.7997   -0.0086   -0.0320 F   0  0  0  0  0  0  0  0  0  0  0  0
   -2.6571    1.1054    0.7656 C   0  0  0  0  0  0  0  0  0  0  0  0
   -1.7476    2.0217    0.0462 N   0  0  0  0  0  0  0  0  0  0  0  0
   -0.3135    1.8530    0.1251 C   0  0  0  0  0  0  0  0  0  0  0  0
   -2.3586    3.0529   -0.7128 C   0  0  0  0  0  0  0  0  0  0  0  0
   -3.6283    3.1065   -0.7226 O   0  0  0  0  0  0  0  0  0  0  0  0
   -1.6156    4.0687   -1.4920 C   0  0  0  0  0  0  0  0  0  0  0  0
   -1.3516    5.2422   -0.6426 N   0  0  0  0  0  0  0  0  0  0  0  0
   -2.1498    6.3150   -0.5018 C   0  0  0  0  0  0  0  0  0  0  0  0
   -1.5392    7.1513    0.3658 N   0  0  0  0  0  0  0  0  0  0  0  0
   -0.3905    6.5936    0.7436 N   0  0  0  0  0  0  0  0  0  0  0  0
   -0.2915    5.4458    0.1286 N   0  0  0  0  0  0  0  0  0  0  0  0
    2.5272    0.4586   -0.1832 C   0  0  0  0  0  0  0  0  0  0  0  0
    2.6113    1.7037   -0.1185 O   0  0  0  0  0  0  0  0  0  0  0  0
    3.7209   -0.2999   -0.3681 N   0  0  0  0  0  0  0  0  0  0  0  0
    4.9751    0.3735   -0.4782 C   0  0  1  0  0  0  0  0  0  0  0  0
    6.0202   -0.1720    0.3933 C   0  0  0  0  0  0  0  0  0  0  0  0
    6.8569    0.6983    1.0756 C   0  0  0  0  0  0  0  0  0  0  0  0
    7.8616    0.2772    1.9118 C   0  0  0  0  0  0  0  0  0  0  0  0
    8.0545   -1.0992    2.0874 C   0  0  0  0  0  0  0  0  0  0  0  0
    7.2262   -1.9862    1.4120 C   0  0  0  0  0  0  0  0  0  0  0  0
    6.2105   -1.5294    0.5661 C   0  0  0  0  0  0  0  0  0  0  0  0
    5.4724    0.2085   -1.9221 C   0  0  0  0  0  0  0  0  0  0  0  0
   -2.3465   -5.2331    2.1899 H   0  0  0  0  0  0  0  0  0  0  0  0
   -1.4245   -2.9795    2.1432 H   0  0  0  0  0  0  0  0  0  0  0  0
   -1.4199   -5.8173   -1.9217 H   0  0  0  0  0  0  0  0  0  0  0  0
   -3.0365   -2.0677   -0.5644 H   0  0  0  0  0  0  0  0  0  0  0  0
   -4.7398   -0.1376    1.9904 H   0  0  0  0  0  0  0  0  0  0  0  0
   -7.1750    0.3476    1.9809 H   0  0  0  0  0  0  0  0  0  0  0  0
   -7.4842   -0.9348   -2.0169 H   0  0  0  0  0  0  0  0  0  0  0  0
   -5.0247   -1.4304   -2.0583 H   0  0  0  0  0  0  0  0  0  0  0  0
   -2.4039    1.2159    1.8375 H   0  0  0  0  0  0  0  0  0  0  0  0
   -3.7072    1.4373    0.6139 H   0  0  0  0  0  0  0  0  0  0  0  0
    0.2273    2.4649   -0.6091 H   0  0  0  0  0  0  0  0  0  0  0  0
   -0.0413    2.2155    1.1569 H   0  0  0  0  0  0  0  0  0  0  0  0
   -2.2184    4.4428   -2.3489 H   0  0  0  0  0  0  0  0  0  0  0  0
   -0.6874    3.6856   -1.9378 H   0  0  0  0  0  0  0  0  0  0  0  0
   -3.1150    6.4983   -0.9869 H   0  0  0  0  0  0  0  0  0  0  0  0
    3.7146   -1.3418   -0.4265 H   0  0  0  0  0  0  0  0  0  0  0  0
    4.8957    1.4732   -0.3477 H   0  0  0  0  0  0  0  0  0  0  0  0
    6.7448    1.7860    0.9703 H   0  0  0  0  0  0  0  0  0  0  0  0
    8.4948    0.9854    2.4293 H   0  0  0  0  0  0  0  0  0  0  0  0
    8.8378   -1.4290    2.7399 H   0  0  0  0  0  0  0  0  0  0  0  0
    7.3550   -3.0449    1.5306 H   0  0  0  0  0  0  0  0  0  0  0  0
    5.5811   -2.2294    0.0512 H   0  0  0  0  0  0  0  0  0  0  0  0
    6.1988    1.0150   -2.1694 H   0  0  0  0  0  0  0  0  0  0  0  0
    5.9370   -0.7656   -2.1015 H   0  0  0  0  0  0  0  0  0  0  0  0
    4.6169    0.3278   -2.6247 H   0  0  0  0  0  0  0  0  0  0  0  0
  1  2  1  0
  2  3  2  0
  3  4  1  0
  4  5  2  0
  5  6  1  0
  6  7  2  0
  6  8  1  0
  5  9  1  0
  9 10  1  0
 10 11  2  0
 11 12  1  0
 12 13  2  0
 13 14  1  0
 14 15  2  0
 15 16  1  0
 16 17  2  0
 17 18  1  0
 18 19  2  0
 19 20  1  0
 20 21  2  0
 19 22  1  0
 14 23  1  0
 23 24  1  0
 24 25  1  0
 24 26  1  0
 26 27  2  0
 26 28  1  0
 28 29  1  0
 29 30  1  0
 30 31  2  0
 31 32  1  0
 32 33  2  0
 11 34  1  0
 34 35  2  0
 34 36  1  0
 36 37  1  0
 37 38  1  0
 38 39  2  0
 39 40  1  0
 40 41  2  0
 41 42  1  0
 42 43  2  0
 37 44  1  0
  7  2  1  0
 13  9  1  0
 21 16  1  0
 33 29  1  0
 43 38  1  0
 25 12  1  0
  3 45  1  0
  4 46  1  0
  7 47  1  0
 15 48  1  0
 17 49  1  0
 18 50  1  0
 20 51  1  0
 21 52  1  0
 23 53  1  0
 23 54  1  0
 25 55  1  0
 25 56  1  0
 28 57  1  0
 28 58  1  0
 30 59  1  0
 36 60  1  0
 37 61  1  1
 39 62  1  0
 40 63  1  0
 41 64  1  0
 42 65  1  0
 43 66  1  0
 44 67  1  0
 44 68  1  0
 44 69  1  0
M  END
>  <Ligand ID>  (1) 
LIG0005409

>  <Ligand>  (1) 
CHEMBL3920504

>  <SMILES>  (1) 
Clc1ccc(c(c1)Cl)n1nc(c2c1/C(=C/c1ccc(cc1)F)/CN(C2)C(=O)Cn1cnnn1)C(=O)N[C@@H](c1ccccc1)C

>  <CID>  (1) 
134139255.0

>  <ChEMBL ID>  (1) 
nan

>  <InChiKey>  (1) 
VEYGRJRSTNWDFO-PPRFWAEMSA-N

>  <InChi>  (1) 
InChI=1S/C31H25Cl2FN8O2/c1-19(21-5-3-2-4-6-21)36-31(44)29-25-16-40(28(43)17-41-18-35-38-39-41)15-22(13-20-7-10-24(34)11-8-20)30(25)42(37-29)27-12-9-23(32)14-26(27)33/h2-14,18-19H,15-17H2,1H3,(H,36,44)/b22-13+/t19-/m1/s1

>  <IUPAC Name>  (1) 
(7E)-1-(2,4-dichlorophenyl)-7-[(4-fluorophenyl)methylidene]-N-[(1R)-1-phenylethyl]-5-[2-(tetrazol-1-yl)acetyl]-4,6-dihydropyrazolo[4,3-c]pyridine-3-carboxamide

$$$$
