
     RDKit          3D

 35 34  0  0  0  0  0  0  0  0999 V2000
   -4.9856   -0.7070   -0.5843 C   0  0  0  0  0  0  0  0  0  0  0  0
   -4.3265    0.1092    0.5206 C   0  0  0  0  0  0  0  0  0  0  0  0
   -3.1580    0.8867    0.0018 C   0  0  0  0  0  0  0  0  0  0  0  0
   -2.0689    0.0731   -0.5893 C   0  0  0  0  0  0  0  0  0  0  0  0
   -1.4223   -0.9146    0.3077 C   0  0  0  0  0  0  0  0  0  0  0  0
   -0.7726   -0.3247    1.5251 C   0  0  0  0  0  0  0  0  0  0  0  0
    0.3112    0.6564    1.1996 C   0  0  0  0  0  0  0  0  0  0  0  0
    1.3599    0.0786    0.4448 O   0  0  0  0  0  0  0  0  0  0  0  0
    2.4316    0.8824    0.0763 C   0  0  0  0  0  0  0  0  0  0  0  0
    2.4869    2.1100    0.4002 O   0  0  0  0  0  0  0  0  0  0  0  0
    3.5254    0.2618   -0.7162 C   0  0  0  0  0  0  0  0  0  0  0  0
    4.7398   -0.0865    0.1132 C   0  0  0  0  0  0  0  0  0  0  0  0
    5.8107   -0.7131   -0.7569 C   0  0  0  0  0  0  0  0  0  0  0  0
   -4.3083   -1.5074   -0.9191 H   0  0  0  0  0  0  0  0  0  0  0  0
   -5.9130   -1.1764   -0.2576 H   0  0  0  0  0  0  0  0  0  0  0  0
   -5.2662    0.0083   -1.3877 H   0  0  0  0  0  0  0  0  0  0  0  0
   -4.1538   -0.4669    1.4315 H   0  0  0  0  0  0  0  0  0  0  0  0
   -5.1032    0.8819    0.7901 H   0  0  0  0  0  0  0  0  0  0  0  0
   -2.8253    1.6294    0.7535 H   0  0  0  0  0  0  0  0  0  0  0  0
   -3.5715    1.5181   -0.8388 H   0  0  0  0  0  0  0  0  0  0  0  0
   -2.4305   -0.4386   -1.4879 H   0  0  0  0  0  0  0  0  0  0  0  0
   -1.2821    0.7836   -0.9351 H   0  0  0  0  0  0  0  0  0  0  0  0
   -2.1219   -1.7245    0.5427 H   0  0  0  0  0  0  0  0  0  0  0  0
   -0.6021   -1.3994   -0.2993 H   0  0  0  0  0  0  0  0  0  0  0  0
   -1.5481    0.2074    2.1108 H   0  0  0  0  0  0  0  0  0  0  0  0
   -0.4055   -1.1375    2.1687 H   0  0  0  0  0  0  0  0  0  0  0  0
    0.7827    1.0185    2.1369 H   0  0  0  0  0  0  0  0  0  0  0  0
   -0.1114    1.5646    0.7229 H   0  0  0  0  0  0  0  0  0  0  0  0
    3.8414    1.0247   -1.4762 H   0  0  0  0  0  0  0  0  0  0  0  0
    3.1832   -0.6086   -1.2898 H   0  0  0  0  0  0  0  0  0  0  0  0
    5.1819    0.8326    0.5516 H   0  0  0  0  0  0  0  0  0  0  0  0
    4.4833   -0.7818    0.9332 H   0  0  0  0  0  0  0  0  0  0  0  0
    5.3427   -0.9970   -1.7147 H   0  0  0  0  0  0  0  0  0  0  0  0
    6.2918   -1.5804   -0.2758 H   0  0  0  0  0  0  0  0  0  0  0  0
    6.6044    0.0368   -1.0202 H   0  0  0  0  0  0  0  0  0  0  0  0
  1  2  1  0
  2  3  1  0
  3  4  1  0
  4  5  1  0
  5  6  1  0
  6  7  1  0
  7  8  1  0
  8  9  1  0
  9 10  2  0
  9 11  1  0
 11 12  1  0
 12 13  1  0
  1 14  1  0
  1 15  1  0
  1 16  1  0
  2 17  1  0
  2 18  1  0
  3 19  1  0
  3 20  1  0
  4 21  1  0
  4 22  1  0
  5 23  1  0
  5 24  1  0
  6 25  1  0
  6 26  1  0
  7 27  1  0
  7 28  1  0
 11 29  1  0
 11 30  1  0
 12 31  1  0
 12 32  1  0
 13 33  1  0
 13 34  1  0
 13 35  1  0
M  END
>  <Ligand ID>  (1) 
LIG0001055

>  <Ligand>  (1) 
Heptyl butyrate

>  <SMILES>  (1) 
CCCCCCCOC(=O)CCC

>  <CID>  (1) 
62592.0

>  <ChEMBL ID>  (1) 
nan

>  <InChiKey>  (1) 
JPQHLIYIQARLQM-UHFFFAOYSA-N

>  <InChi>  (1) 
InChI=1S/C11H22O2/c1-3-5-6-7-8-10-13-11(12)9-4-2/h3-10H2,1-2H3

>  <IUPAC Name>  (1) 
heptyl butanoate

$$$$
