
     RDKit          3D

121125  0  0  0  0  0  0  0  0999 V2000
   -3.5140    3.9135    3.6885 C   0  0  0  0  0  0  0  0  0  0  0  0
   -2.3286    3.5424    2.3539 S   0  0  0  0  0  0  0  0  0  0  0  0
   -0.7203    3.0762    3.0376 C   0  0  0  0  0  0  0  0  0  0  0  0
   -0.7182    1.7808    3.7643 C   0  0  0  0  0  0  0  0  0  0  0  0
   -1.0719    0.5654    2.9975 C   0  0  1  0  0  0  0  0  0  0  0  0
   -2.4159    0.5400    2.3836 C   0  0  0  0  0  0  0  0  0  0  0  0
   -3.3971    0.7337    3.1713 O   0  0  0  0  0  0  0  0  0  0  0  0
   -2.6711    0.3155    1.0144 N   0  0  0  0  0  0  0  0  0  0  0  0
   -4.0627    0.2836    0.5403 C   0  0  2  0  0  0  0  0  0  0  0  0
   -4.2590   -0.8709   -0.3587 C   0  0  0  0  0  0  0  0  0  0  0  0
   -3.2065   -1.5513   -0.6235 O   0  0  0  0  0  0  0  0  0  0  0  0
   -5.4385   -1.2705   -0.9198 O   0  0  0  0  0  0  0  0  0  0  0  0
   -5.5132   -2.4160   -1.7898 C   0  0  0  0  0  0  0  0  0  0  0  0
   -6.9351   -2.5688   -2.1756 C   0  0  0  0  0  0  0  0  0  0  0  0
   -7.6967   -3.4055   -1.3523 C   0  0  0  0  0  0  0  0  0  0  0  0
   -9.0308   -3.6487   -1.5884 C   0  0  0  0  0  0  0  0  0  0  0  0
   -9.5977   -3.0316   -2.6768 C   0  0  0  0  0  0  0  0  0  0  0  0
   -8.8823   -2.1903   -3.5251 C   0  0  0  0  0  0  0  0  0  0  0  0
   -7.5309   -1.9746   -3.2448 C   0  0  0  0  0  0  0  0  0  0  0  0
   -9.5496   -1.5437   -4.6935 C   0  0  0  0  0  0  0  0  0  0  0  0
  -10.1138   -2.5130   -5.4992 F   0  0  0  0  0  0  0  0  0  0  0  0
   -8.5719   -0.9032   -5.4358 F   0  0  0  0  0  0  0  0  0  0  0  0
  -10.4750   -0.6147   -4.3008 F   0  0  0  0  0  0  0  0  0  0  0  0
   -9.7962   -4.5591   -0.6816 C   0  0  0  0  0  0  0  0  0  0  0  0
  -10.6486   -5.3951   -1.3983 F   0  0  0  0  0  0  0  0  0  0  0  0
   -8.9149   -5.3617    0.0454 F   0  0  0  0  0  0  0  0  0  0  0  0
  -10.5347   -3.8724    0.2632 F   0  0  0  0  0  0  0  0  0  0  0  0
   -4.3694    1.5496   -0.2488 C   0  0  0  0  0  0  0  0  0  0  0  0
   -5.7998    1.4124   -0.6847 C   0  0  0  0  0  0  0  0  0  0  0  0
   -6.2556    1.1348   -1.9605 C   0  0  0  0  0  0  0  0  0  0  0  0
   -7.6044    1.1032   -1.9145 N   0  0  0  0  0  0  0  0  0  0  0  0
   -8.0407    1.3454   -0.6779 C   0  0  0  0  0  0  0  0  0  0  0  0
   -6.9346    1.5426    0.1127 C   0  0  0  0  0  0  0  0  0  0  0  0
   -7.1070    1.8091    1.4572 C   0  0  0  0  0  0  0  0  0  0  0  0
   -8.3671    1.8856    2.0474 C   0  0  0  0  0  0  0  0  0  0  0  0
   -9.4643    1.6885    1.2568 C   0  0  0  0  0  0  0  0  0  0  0  0
   -9.3020    1.4219   -0.0882 C   0  0  0  0  0  0  0  0  0  0  0  0
   -0.0380    0.1700    2.0369 N   0  0  0  0  0  0  0  0  0  0  0  0
    0.4656   -1.1349    2.1298 C   0  0  0  0  0  0  0  0  0  0  0  0
    0.0145   -1.9369    3.0319 O   0  0  0  0  0  0  0  0  0  0  0  0
    1.5135   -1.7319    1.2619 C   0  0  2  0  0  0  0  0  0  0  0  0
    2.5811   -2.4698    2.0629 C   0  0  0  0  0  0  0  0  0  0  0  0
    3.2977   -1.6168    3.0239 C   0  0  0  0  0  0  0  0  0  0  0  0
    2.9294   -1.4548    4.3420 C   0  0  0  0  0  0  0  0  0  0  0  0
    3.6541   -0.6207    5.2037 C   0  0  0  0  0  0  0  0  0  0  0  0
    4.7693    0.0693    4.7525 C   0  0  0  0  0  0  0  0  0  0  0  0
    5.1455   -0.0933    3.4148 C   0  0  0  0  0  0  0  0  0  0  0  0
    4.4072   -0.9214    2.6016 C   0  0  0  0  0  0  0  0  0  0  0  0
    2.0401   -0.8715    0.2536 N   0  0  0  0  0  0  0  0  0  0  0  0
    1.7459   -1.0648   -1.1127 C   0  0  0  0  0  0  0  0  0  0  0  0
    0.9689   -2.0416   -1.4014 O   0  0  0  0  0  0  0  0  0  0  0  0
    2.2297   -0.2701   -2.2382 C   0  0  0  0  0  0  0  0  0  0  0  0
    3.1388    0.7867   -1.9450 N   0  0  0  0  0  0  0  0  0  0  0  0
    4.4017    0.4226   -1.3604 C   0  0  0  0  0  0  0  0  0  0  0  0
    4.6667   -0.8031   -1.1321 O   0  0  0  0  0  0  0  0  0  0  0  0
    5.4331    1.4270   -1.0022 C   0  0  2  0  0  0  0  0  0  0  0  0
    6.5775    0.8103   -0.3784 N   0  0  0  0  0  0  0  0  0  0  0  0
    7.9034    0.8827   -0.8383 C   0  0  0  0  0  0  0  0  0  0  0  0
    8.1156    1.5451   -1.8928 O   0  0  0  0  0  0  0  0  0  0  0  0
    8.9931    0.2164   -0.1215 C   0  0  2  0  0  0  0  0  0  0  0  0
    9.7698   -0.7870   -0.9210 C   0  0  0  0  0  0  0  0  0  0  0  0
   10.4256   -0.2152   -2.0991 C   0  0  0  0  0  0  0  0  0  0  0  0
   11.7123    0.2888   -1.9271 C   0  0  0  0  0  0  0  0  0  0  0  0
   12.3924    0.8412   -3.0034 C   0  0  0  0  0  0  0  0  0  0  0  0
   11.8024    0.8961   -4.2507 C   0  0  0  0  0  0  0  0  0  0  0  0
   10.5121    0.3973   -4.4508 C   0  0  0  0  0  0  0  0  0  0  0  0
    9.8674   -0.1457   -3.3516 C   0  0  0  0  0  0  0  0  0  0  0  0
   12.5449    1.4613   -5.2744 O   0  0  0  0  0  0  0  0  0  0  0  0
    8.4634   -0.4301    1.0636 N   0  0  0  0  0  0  0  0  0  0  0  0
    4.8497    2.5363   -0.1526 C   0  0  0  0  0  0  0  0  0  0  0  0
   -3.4347    4.9644    4.0406 H   0  0  0  0  0  0  0  0  0  0  0  0
   -4.5263    3.8288    3.2515 H   0  0  0  0  0  0  0  0  0  0  0  0
   -3.4554    3.1884    4.5243 H   0  0  0  0  0  0  0  0  0  0  0  0
   -0.4962    3.8686    3.8147 H   0  0  0  0  0  0  0  0  0  0  0  0
    0.0943    3.1898    2.3025 H   0  0  0  0  0  0  0  0  0  0  0  0
   -1.4058    1.8477    4.6362 H   0  0  0  0  0  0  0  0  0  0  0  0
    0.2919    1.5880    4.2280 H   0  0  0  0  0  0  0  0  0  0  0  0
   -1.1082   -0.2770    3.7583 H   0  0  0  0  0  0  0  0  0  0  0  0
   -1.8631    0.1799    0.3736 H   0  0  0  0  0  0  0  0  0  0  0  0
   -4.6884    0.2715    1.4567 H   0  0  0  0  0  0  0  0  0  0  0  0
   -4.9221   -2.1418   -2.7091 H   0  0  0  0  0  0  0  0  0  0  0  0
   -5.0750   -3.3141   -1.3456 H   0  0  0  0  0  0  0  0  0  0  0  0
   -7.2544   -3.8977   -0.4837 H   0  0  0  0  0  0  0  0  0  0  0  0
  -10.6611   -3.2425   -2.8428 H   0  0  0  0  0  0  0  0  0  0  0  0
   -6.9505   -1.3362   -3.8719 H   0  0  0  0  0  0  0  0  0  0  0  0
   -4.2536    2.4704    0.3242 H   0  0  0  0  0  0  0  0  0  0  0  0
   -3.7395    1.4984   -1.1730 H   0  0  0  0  0  0  0  0  0  0  0  0
   -5.6625    0.9693   -2.8481 H   0  0  0  0  0  0  0  0  0  0  0  0
   -8.1909    0.9082   -2.7618 H   0  0  0  0  0  0  0  0  0  0  0  0
   -6.2447    1.9741    2.1227 H   0  0  0  0  0  0  0  0  0  0  0  0
   -8.4872    2.0964    3.1162 H   0  0  0  0  0  0  0  0  0  0  0  0
  -10.4498    1.7470    1.7203 H   0  0  0  0  0  0  0  0  0  0  0  0
  -10.1498    1.2609   -0.7369 H   0  0  0  0  0  0  0  0  0  0  0  0
    0.3319    0.7959    1.3079 H   0  0  0  0  0  0  0  0  0  0  0  0
    0.9928   -2.5836    0.6988 H   0  0  0  0  0  0  0  0  0  0  0  0
    3.2443   -3.0172    1.3753 H   0  0  0  0  0  0  0  0  0  0  0  0
    2.0127   -3.2692    2.6117 H   0  0  0  0  0  0  0  0  0  0  0  0
    2.0773   -1.9666    4.7648 H   0  0  0  0  0  0  0  0  0  0  0  0
    3.3280   -0.5250    6.2253 H   0  0  0  0  0  0  0  0  0  0  0  0
    5.3155    0.7067    5.4298 H   0  0  0  0  0  0  0  0  0  0  0  0
    6.0111    0.4543    3.0981 H   0  0  0  0  0  0  0  0  0  0  0  0
    4.7104   -1.0412    1.5740 H   0  0  0  0  0  0  0  0  0  0  0  0
    2.6538   -0.0740    0.5258 H   0  0  0  0  0  0  0  0  0  0  0  0
    2.6356   -0.9923   -2.9974 H   0  0  0  0  0  0  0  0  0  0  0  0
    1.3110    0.1591   -2.7429 H   0  0  0  0  0  0  0  0  0  0  0  0
    2.9475    1.7950   -2.1259 H   0  0  0  0  0  0  0  0  0  0  0  0
    5.8212    1.9376   -1.9226 H   0  0  0  0  0  0  0  0  0  0  0  0
    6.3905    0.2603    0.4940 H   0  0  0  0  0  0  0  0  0  0  0  0
    9.7464    0.9586    0.2821 H   0  0  0  0  0  0  0  0  0  0  0  0
   10.5449   -1.2044   -0.2205 H   0  0  0  0  0  0  0  0  0  0  0  0
    9.1469   -1.6627   -1.2058 H   0  0  0  0  0  0  0  0  0  0  0  0
   12.1758    0.2488   -0.9598 H   0  0  0  0  0  0  0  0  0  0  0  0
   13.3973    1.2172   -2.8048 H   0  0  0  0  0  0  0  0  0  0  0  0
   10.0633    0.4469   -5.4299 H   0  0  0  0  0  0  0  0  0  0  0  0
    8.8711   -0.5327   -3.5079 H   0  0  0  0  0  0  0  0  0  0  0  0
   12.5834    2.4630   -5.4557 H   0  0  0  0  0  0  0  0  0  0  0  0
    8.0427    0.3086    1.6628 H   0  0  0  0  0  0  0  0  0  0  0  0
    7.7723   -1.1593    0.8907 H   0  0  0  0  0  0  0  0  0  0  0  0
    3.8678    2.8142   -0.5881 H   0  0  0  0  0  0  0  0  0  0  0  0
    5.4664    3.4551   -0.1930 H   0  0  0  0  0  0  0  0  0  0  0  0
    4.7172    2.2699    0.9008 H   0  0  0  0  0  0  0  0  0  0  0  0
  1  2  1  0
  2  3  1  0
  3  4  1  0
  4  5  1  0
  5  6  1  0
  6  7  2  0
  6  8  1  0
  8  9  1  0
  9 10  1  0
 10 11  2  0
 10 12  1  0
 12 13  1  0
 13 14  1  0
 14 15  2  0
 15 16  1  0
 16 17  2  0
 17 18  1  0
 18 19  2  0
 18 20  1  0
 20 21  1  0
 20 22  1  0
 20 23  1  0
 16 24  1  0
 24 25  1  0
 24 26  1  0
 24 27  1  0
  9 28  1  0
 28 29  1  0
 29 30  2  0
 30 31  1  0
 31 32  1  0
 32 33  2  0
 33 34  1  0
 34 35  2  0
 35 36  1  0
 36 37  2  0
  5 38  1  0
 38 39  1  0
 39 40  2  0
 39 41  1  0
 41 42  1  0
 42 43  1  0
 43 44  2  0
 44 45  1  0
 45 46  2  0
 46 47  1  0
 47 48  2  0
 41 49  1  0
 49 50  1  0
 50 51  2  0
 50 52  1  0
 52 53  1  0
 53 54  1  0
 54 55  2  0
 54 56  1  0
 56 57  1  0
 57 58  1  0
 58 59  2  0
 58 60  1  0
 60 61  1  0
 61 62  1  0
 62 63  2  0
 63 64  1  0
 64 65  2  0
 65 66  1  0
 66 67  2  0
 65 68  1  0
 60 69  1  0
 56 70  1  0
 19 14  1  0
 33 29  1  0
 48 43  1  0
 67 62  1  0
 37 32  1  0
  1 71  1  0
  1 72  1  0
  1 73  1  0
  3 74  1  0
  3 75  1  0
  4 76  1  0
  4 77  1  0
  5 78  1  1
  8 79  1  0
  9 80  1  1
 13 81  1  0
 13 82  1  0
 15 83  1  0
 17 84  1  0
 19 85  1  0
 28 86  1  0
 28 87  1  0
 30 88  1  0
 31 89  1  0
 34 90  1  0
 35 91  1  0
 36 92  1  0
 37 93  1  0
 38 94  1  0
 41 95  1  6
 42 96  1  0
 42 97  1  0
 44 98  1  0
 45 99  1  0
 46100  1  0
 47101  1  0
 48102  1  0
 49103  1  0
 52104  1  0
 52105  1  0
 53106  1  0
 56107  1  6
 57108  1  0
 60109  1  1
 61110  1  0
 61111  1  0
 63112  1  0
 64113  1  0
 66114  1  0
 67115  1  0
 68116  1  0
 69117  1  0
 69118  1  0
 70119  1  0
 70120  1  0
 70121  1  0
M  END
>  <Ligand ID>  (1) 
LIG0005377

>  <Ligand>  (1) 
CHEMBL2419541

>  <SMILES>  (1) 
CSCC[C@@H](C(=O)N[C@H](C(=O)OCc1cc(cc(c1)C(F)(F)F)C(F)(F)F)Cc1c[nH]c2c1cccc2)NC(=O)[C@H](Cc1ccccc1)NC(=O)CNC(=O)[C@H](NC(=O)[C@H](Cc1ccc(cc1)O)N)C

>  <CID>  (1) 
44177995.0

>  <ChEMBL ID>  (1) 
nan

>  <InChiKey>  (1) 
MJOXRJQZLVVZCL-DZGOFYRVSA-N

>  <InChi>  (1) 
InChI=1S/C48H51F6N7O8S/c1-27(58-43(65)36(55)20-29-12-14-34(62)15-13-29)42(64)57-25-41(63)59-39(21-28-8-4-3-5-9-28)45(67)60-38(16-17-70-2)44(66)61-40(22-31-24-56-37-11-7-6-10-35(31)37)46(68)69-26-30-18-32(47(49,50)51)23-33(19-30)48(52,53)54/h3-15,18-19,23-24,27,36,38-40,56,62H,16-17,20-22,25-26,55H2,1-2H3,(H,57,64)(H,58,65)(H,59,63)(H,60,67)(H,61,66)/t27-,36+,38+,39+,40+/m1/s1

>  <IUPAC Name>  (1) 
[3,5-bis(trifluoromethyl)phenyl]methyl (2S)-2-[[(2S)-2-[[(2S)-2-[[2-[[(2R)-2-[[(2S)-2-amino-3-(4-hydroxyphenyl)propanoyl]amino]propanoyl]amino]acetyl]amino]-3-phenylpropanoyl]amino]-4-methylsulfanylbutanoyl]amino]-3-(1H-indol-3-yl)propanoate

$$$$
