
     RDKit          3D

 52 55  0  0  0  0  0  0  0  0999 V2000
    0.2796    4.7602    0.3569 C   0  0  0  0  0  0  0  0  0  0  0  0
    0.6064    3.3751    0.2897 O   0  0  0  0  0  0  0  0  0  0  0  0
   -0.4146    2.5094   -0.0805 C   0  0  0  0  0  0  0  0  0  0  0  0
   -1.6853    2.9228   -0.3749 C   0  0  0  0  0  0  0  0  0  0  0  0
   -2.7106    2.0757   -0.7442 C   0  0  0  0  0  0  0  0  0  0  0  0
   -2.4155    0.7196   -0.8166 C   0  0  0  0  0  0  0  0  0  0  0  0
   -1.1320    0.2799   -0.5218 C   0  0  0  0  0  0  0  0  0  0  0  0
   -0.1490    1.1535   -0.1608 C   0  0  0  0  0  0  0  0  0  0  0  0
    1.1486    0.6159    0.1272 N   0  0  0  0  0  0  0  0  0  0  0  0
    2.1303    0.4642   -0.8682 C   0  0  0  0  0  0  0  0  0  0  0  0
    1.7537    0.8491   -2.0454 O   0  0  0  0  0  0  0  0  0  0  0  0
    3.4592   -0.0571   -0.7093 C   0  0  0  0  0  0  0  0  0  0  0  0
    4.4675   -0.1258   -2.1575 S   0  0  0  0  0  0  0  0  0  0  0  0
    5.8846   -0.8188   -1.3391 C   0  0  0  0  0  0  0  0  0  0  0  0
    5.4967   -0.9472   -0.0405 C   0  0  0  0  0  0  0  0  0  0  0  0
    4.2321   -0.5457    0.2679 C   0  0  0  0  0  0  0  0  0  0  0  0
    3.6781   -0.6333    1.6920 C   0  0  0  0  0  0  0  0  0  0  0  0
    6.5014   -1.4933    0.7949 C   0  0  0  0  0  0  0  0  0  0  0  0
    6.3298   -1.7079    2.1109 F   0  0  0  0  0  0  0  0  0  0  0  0
    7.7332   -1.8396    0.2759 C   0  0  0  0  0  0  0  0  0  0  0  0
    8.0785   -1.6900   -1.0476 C   0  0  0  0  0  0  0  0  0  0  0  0
    7.1035   -1.1577   -1.8706 C   0  0  0  0  0  0  0  0  0  0  0  0
   -3.6080   -0.4603   -1.2678 S   0  0  0  0  0  0  0  0  0  0  0  0
   -2.9458   -1.6315   -1.9629 O   0  0  0  0  0  0  0  0  0  0  0  0
   -4.6167    0.0892   -2.2461 O   0  0  0  0  0  0  0  0  0  0  0  0
   -4.4714   -1.0894    0.0531 N   0  0  0  0  0  0  0  0  0  0  0  0
   -5.2249   -0.1276    0.7889 C   0  0  0  0  0  0  0  0  0  0  0  0
   -6.2751   -0.7368    1.6760 C   0  0  0  0  0  0  0  0  0  0  0  0
   -7.0762   -1.5465    0.8639 O   0  0  0  0  0  0  0  0  0  0  0  0
   -6.3021   -2.6691    0.5896 C   0  0  0  0  0  0  0  0  0  0  0  0
   -5.0479   -2.3618   -0.1452 C   0  0  0  0  0  0  0  0  0  0  0  0
   -0.6337    4.9221    0.9674 H   0  0  0  0  0  0  0  0  0  0  0  0
    0.1099    5.1832   -0.6564 H   0  0  0  0  0  0  0  0  0  0  0  0
    1.1059    5.3488    0.8017 H   0  0  0  0  0  0  0  0  0  0  0  0
   -1.9118    3.9750   -0.3179 H   0  0  0  0  0  0  0  0  0  0  0  0
   -3.7177    2.4371   -0.9737 H   0  0  0  0  0  0  0  0  0  0  0  0
   -0.9128   -0.7769   -0.5811 H   0  0  0  0  0  0  0  0  0  0  0  0
    1.3259    0.3444    1.1019 H   0  0  0  0  0  0  0  0  0  0  0  0
    3.4546    0.4282    1.9909 H   0  0  0  0  0  0  0  0  0  0  0  0
    4.3961   -0.9804    2.4202 H   0  0  0  0  0  0  0  0  0  0  0  0
    2.8177   -1.3139    1.7406 H   0  0  0  0  0  0  0  0  0  0  0  0
    8.4911   -2.2557    0.9269 H   0  0  0  0  0  0  0  0  0  0  0  0
    9.0343   -1.9555   -1.4652 H   0  0  0  0  0  0  0  0  0  0  0  0
    7.3197   -1.0215   -2.9030 H   0  0  0  0  0  0  0  0  0  0  0  0
   -5.7896    0.4763    0.0198 H   0  0  0  0  0  0  0  0  0  0  0  0
   -4.5679    0.5872    1.3009 H   0  0  0  0  0  0  0  0  0  0  0  0
   -5.8431   -1.3809    2.4676 H   0  0  0  0  0  0  0  0  0  0  0  0
   -6.9185    0.0608    2.0848 H   0  0  0  0  0  0  0  0  0  0  0  0
   -6.9270   -3.3455   -0.0288 H   0  0  0  0  0  0  0  0  0  0  0  0
   -6.0698   -3.2441    1.5292 H   0  0  0  0  0  0  0  0  0  0  0  0
   -5.2525   -2.4621   -1.2518 H   0  0  0  0  0  0  0  0  0  0  0  0
   -4.3191   -3.2014    0.0543 H   0  0  0  0  0  0  0  0  0  0  0  0
  1  2  1  0
  2  3  1  0
  3  4  2  0
  4  5  1  0
  5  6  2  0
  6  7  1  0
  7  8  2  0
  8  9  1  0
  9 10  1  0
 10 11  2  0
 10 12  1  0
 12 13  1  0
 13 14  1  0
 14 15  2  0
 15 16  1  0
 16 17  1  0
 15 18  1  0
 18 19  1  0
 18 20  2  0
 20 21  1  0
 21 22  2  0
  6 23  1  0
 23 24  2  0
 23 25  2  0
 23 26  1  0
 26 27  1  0
 27 28  1  0
 28 29  1  0
 29 30  1  0
 30 31  1  0
  8  3  1  0
 16 12  2  0
 31 26  1  0
 22 14  1  0
  1 32  1  0
  1 33  1  0
  1 34  1  0
  4 35  1  0
  5 36  1  0
  7 37  1  0
  9 38  1  0
 17 39  1  0
 17 40  1  0
 17 41  1  0
 20 42  1  0
 21 43  1  0
 22 44  1  0
 27 45  1  0
 27 46  1  0
 28 47  1  0
 28 48  1  0
 30 49  1  0
 30 50  1  0
 31 51  1  0
 31 52  1  0
M  END
>  <Ligand ID>  (1) 
LIG0001710

>  <Ligand>  (1) 
MLS-0435538.0001

>  <SMILES>  (1) 
COc1ccc(cc1NC(=O)c1sc2c(c1C)c(F)ccc2)S(=O)(=O)N1CCOCC1

>  <CID>  (1) 
16303023.0

>  <ChEMBL ID>  (1) 
nan

>  <InChiKey>  (1) 
PTAXWGQFEGHLRE-UHFFFAOYSA-N

>  <InChi>  (1) 
InChI=1S/C21H21FN2O5S2/c1-13-19-15(22)4-3-5-18(19)30-20(13)21(25)23-16-12-14(6-7-17(16)28-2)31(26,27)24-8-10-29-11-9-24/h3-7,12H,8-11H2,1-2H3,(H,23,25)

>  <IUPAC Name>  (1) 
4-fluoro-N-(2-methoxy-5-morpholin-4-ylsulfonylphenyl)-3-methyl-1-benzothiophene-2-carboxamide

$$$$
