
     RDKit          3D

 68 70  0  0  0  0  0  0  0  0999 V2000
   -6.2180    1.9069    0.3774 C   0  0  0  0  0  0  0  0  0  0  0  0
   -5.0556    1.4519    1.1239 N   0  0  0  0  0  0  0  0  0  0  0  0
   -3.8244    1.8484    0.4663 C   0  0  0  0  0  0  0  0  0  0  0  0
   -2.6441    1.3818    1.2407 C   0  0  0  0  0  0  0  0  0  0  0  0
   -2.4620   -0.0749    1.4091 C   0  0  0  0  0  0  0  0  0  0  0  0
   -2.2554   -0.8539    0.2394 N   0  0  0  0  0  0  0  0  0  0  0  0
   -1.0272   -1.1846   -0.3779 C   0  0  0  0  0  0  0  0  0  0  0  0
   -1.1698   -1.7795   -1.5229 O   0  0  0  0  0  0  0  0  0  0  0  0
    0.3119   -0.9784    0.0484 C   0  0  0  0  0  0  0  0  0  0  0  0
    1.2684   -1.8977   -0.4419 C   0  0  0  0  0  0  0  0  0  0  0  0
    2.5957   -1.8154   -0.1042 C   0  0  0  0  0  0  0  0  0  0  0  0
    3.0582   -0.8344    0.7268 C   0  0  0  0  0  0  0  0  0  0  0  0
    2.1623    0.0773    1.2235 C   0  0  0  0  0  0  0  0  0  0  0  0
    0.8115   -0.0144    0.8741 C   0  0  0  0  0  0  0  0  0  0  0  0
    4.7522   -0.7394    1.1517 S   0  0  0  0  0  0  0  0  0  0  0  0
    4.8023   -0.1306    2.5479 O   0  0  0  0  0  0  0  0  0  0  0  0
    5.3158   -2.1372    1.2899 O   0  0  0  0  0  0  0  0  0  0  0  0
    5.6734    0.2381    0.1424 N   0  0  0  0  0  0  0  0  0  0  0  0
    5.2511    1.5871    0.1468 C   0  0  0  0  0  0  0  0  0  0  0  0
    6.4347    2.5436    0.1214 C   0  0  0  0  0  0  0  0  0  0  0  0
    7.6627    1.6739    0.3988 C   0  0  0  0  0  0  0  0  0  0  0  0
    8.1923    1.1825   -0.9047 C   0  0  0  0  0  0  0  0  0  0  0  0
    7.6919   -0.2379   -1.1327 C   0  0  0  0  0  0  0  0  0  0  0  0
    6.1782   -0.3025   -1.0586 C   0  0  0  0  0  0  0  0  0  0  0  0
   -3.4099   -1.3946   -0.4677 C   0  0  0  0  0  0  0  0  0  0  0  0
   -3.3733   -2.2926   -2.0059 S   0  0  0  0  0  0  0  0  0  0  0  0
   -5.1521   -2.5685   -2.0467 C   0  0  0  0  0  0  0  0  0  0  0  0
   -5.5814   -1.9570   -0.9027 C   0  0  0  0  0  0  0  0  0  0  0  0
   -4.7206   -1.3756   -0.1208 N   0  0  0  0  0  0  0  0  0  0  0  0
   -6.9827   -2.0337   -0.6882 C   0  0  0  0  0  0  0  0  0  0  0  0
   -7.5508   -1.4764    0.4038 F   0  0  0  0  0  0  0  0  0  0  0  0
   -7.7563   -2.6745   -1.5858 C   0  0  0  0  0  0  0  0  0  0  0  0
   -7.3282   -3.2915   -2.7392 C   0  0  0  0  0  0  0  0  0  0  0  0
   -5.9469   -3.2228   -2.9627 C   0  0  0  0  0  0  0  0  0  0  0  0
   -8.1215   -3.9221   -3.6148 F   0  0  0  0  0  0  0  0  0  0  0  0
   -5.0633    1.9793    2.4774 C   0  0  0  0  0  0  0  0  0  0  0  0
    0.6920    0.0000    0.0000 Cl  0  0  0  0  0  0  0  0  0  0  0  0
   -5.9824    2.1268   -0.6681 H   0  0  0  0  0  0  0  0  0  0  0  0
   -7.0265    1.1608    0.4533 H   0  0  0  0  0  0  0  0  0  0  0  0
   -6.6126    2.8539    0.8358 H   0  0  0  0  0  0  0  0  0  0  0  0
   -3.7909    2.9546    0.3506 H   0  0  0  0  0  0  0  0  0  0  0  0
   -3.8318    1.4679   -0.5854 H   0  0  0  0  0  0  0  0  0  0  0  0
   -1.7183    1.8682    0.8083 H   0  0  0  0  0  0  0  0  0  0  0  0
   -2.6701    1.8226    2.2830 H   0  0  0  0  0  0  0  0  0  0  0  0
   -1.6943   -0.3394    2.1666 H   0  0  0  0  0  0  0  0  0  0  0  0
   -3.4510   -0.4552    1.8474 H   0  0  0  0  0  0  0  0  0  0  0  0
    0.9793   -2.7015   -1.1030 H   0  0  0  0  0  0  0  0  0  0  0  0
    3.3050   -2.5239   -0.4876 H   0  0  0  0  0  0  0  0  0  0  0  0
    2.5024    0.8614    1.8829 H   0  0  0  0  0  0  0  0  0  0  0  0
    0.1781    0.7316    1.2993 H   0  0  0  0  0  0  0  0  0  0  0  0
    4.5389    1.8464    0.9524 H   0  0  0  0  0  0  0  0  0  0  0  0
    4.6673    1.7822   -0.8016 H   0  0  0  0  0  0  0  0  0  0  0  0
    6.5637    2.9883   -0.8790 H   0  0  0  0  0  0  0  0  0  0  0  0
    6.3432    3.3588    0.8480 H   0  0  0  0  0  0  0  0  0  0  0  0
    8.3774    2.3117    0.9603 H   0  0  0  0  0  0  0  0  0  0  0  0
    7.3760    0.7979    1.0276 H   0  0  0  0  0  0  0  0  0  0  0  0
    9.3048    1.1905   -0.9136 H   0  0  0  0  0  0  0  0  0  0  0  0
    7.8122    1.8358   -1.7177 H   0  0  0  0  0  0  0  0  0  0  0  0
    8.1076   -0.8830   -0.3333 H   0  0  0  0  0  0  0  0  0  0  0  0
    8.0539   -0.5533   -2.1417 H   0  0  0  0  0  0  0  0  0  0  0  0
    5.7117    0.2277   -1.9213 H   0  0  0  0  0  0  0  0  0  0  0  0
    5.8780   -1.3606   -1.1606 H   0  0  0  0  0  0  0  0  0  0  0  0
   -8.8408   -2.7227   -1.3982 H   0  0  0  0  0  0  0  0  0  0  0  0
   -5.4769   -3.6605   -3.8231 H   0  0  0  0  0  0  0  0  0  0  0  0
   -4.5092    1.2642    3.1176 H   0  0  0  0  0  0  0  0  0  0  0  0
   -4.5409    2.9732    2.4670 H   0  0  0  0  0  0  0  0  0  0  0  0
   -6.0724    2.0947    2.9018 H   0  0  0  0  0  0  0  0  0  0  0  0
   -0.6920    0.0000    0.0000 H   0  0  0  0  0  0  0  0  0  0  0  0
  1  2  1  0
  2  3  1  0
  3  4  1  0
  4  5  1  0
  5  6  1  0
  6  7  1  0
  7  8  2  0
  7  9  1  0
  9 10  2  0
 10 11  1  0
 11 12  2  0
 12 13  1  0
 13 14  2  0
 12 15  1  0
 15 16  2  0
 15 17  2  0
 15 18  1  0
 18 19  1  0
 19 20  1  0
 20 21  1  0
 21 22  1  0
 22 23  1  0
 23 24  1  0
  6 25  1  0
 25 26  1  0
 26 27  1  0
 27 28  2  0
 28 29  1  0
 28 30  1  0
 30 31  1  0
 30 32  2  0
 32 33  1  0
 33 34  2  0
 33 35  1  0
  2 36  1  0
 14  9  1  0
 24 18  1  0
 29 25  2  0
 34 27  1  0
  1 38  1  0
  1 39  1  0
  1 40  1  0
  3 41  1  0
  3 42  1  0
  4 43  1  0
  4 44  1  0
  5 45  1  0
  5 46  1  0
 10 47  1  0
 11 48  1  0
 13 49  1  0
 14 50  1  0
 19 51  1  0
 19 52  1  0
 20 53  1  0
 20 54  1  0
 21 55  1  0
 21 56  1  0
 22 57  1  0
 22 58  1  0
 23 59  1  0
 23 60  1  0
 24 61  1  0
 24 62  1  0
 32 63  1  0
 34 64  1  0
 36 65  1  0
 36 66  1  0
 36 67  1  0
 37 68  1  0
M  END
>  <Ligand ID>  (1) 
LIG0004543

>  <Ligand>  (1) 
MLS001239230

>  <SMILES>  (1) 
CN(CCCN(C(=O)c1ccc(cc1)S(=O)(=O)N1CCCCCC1)c1sc2c(n1)c(F)cc(c2)F)C.Cl

>  <CID>  (1) 
24892694.0

>  <ChEMBL ID>  (1) 
nan

>  <InChiKey>  (1) 
BPFGNAQSCUUSSI-UHFFFAOYSA-N

>  <InChi>  (1) 
InChI=1S/C25H30F2N4O3S2.ClH/c1-29(2)12-7-15-31(25-28-23-21(27)16-19(26)17-22(23)35-25)24(32)18-8-10-20(11-9-18)36(33,34)30-13-5-3-4-6-14-30;/h8-11,16-17H,3-7,12-15H2,1-2H3;1H

>  <IUPAC Name>  (1) 
4-(azepan-1-ylsulfonyl)-N-(4,6-difluoro-1,3-benzothiazol-2-yl)-N-[3-(dimethylamino)propyl]benzamide;hydrochloride

$$$$
