
     RDKit          3D

 33 33  0  0  0  0  0  0  0  0999 V2000
    3.9299   -1.1002    0.6766 C   0  0  0  0  0  0  0  0  0  0  0  0
    2.6628   -1.4563    1.3896 C   0  0  0  0  0  0  0  0  0  0  0  0
    1.4888   -0.9942    0.7506 O   0  0  0  0  0  0  0  0  0  0  0  0
    1.2169    0.3244    0.5035 C   0  0  0  0  0  0  0  0  0  0  0  0
    2.0441    1.3767    0.8415 C   0  0  0  0  0  0  0  0  0  0  0  0
    1.7222    2.6938    0.5690 C   0  0  0  0  0  0  0  0  0  0  0  0
    0.5285    2.9765   -0.0658 C   0  0  0  0  0  0  0  0  0  0  0  0
   -0.3303    1.9432   -0.4215 C   0  0  0  0  0  0  0  0  0  0  0  0
    0.0132    0.6312   -0.1383 C   0  0  0  0  0  0  0  0  0  0  0  0
   -0.9092   -0.4940   -0.5191 C   0  0  1  0  0  0  0  0  0  0  0  0
   -1.9317   -0.8557    0.5777 C   0  0  0  0  0  0  0  0  0  0  0  0
   -2.3462   -0.2305   -0.7276 C   0  0  2  0  0  0  0  0  0  0  0  0
   -3.0811   -1.1944   -1.6620 C   0  0  0  0  0  0  0  0  0  0  0  0
   -4.4781   -0.7624   -1.7323 N   0  0  0  0  0  0  0  0  0  0  0  0
    0.0517    4.6364   -0.4457 Cl  0  0  0  0  0  0  0  0  0  0  0  0
    0.6865    0.0000    0.0000 Cl  0  0  0  0  0  0  0  0  0  0  0  0
    4.4115   -2.0339    0.2873 H   0  0  0  0  0  0  0  0  0  0  0  0
    4.6326   -0.5642    1.3643 H   0  0  0  0  0  0  0  0  0  0  0  0
    3.7161   -0.4791   -0.2422 H   0  0  0  0  0  0  0  0  0  0  0  0
    2.6456   -2.5274    1.5946 H   0  0  0  0  0  0  0  0  0  0  0  0
    2.6596   -0.9435    2.3944 H   0  0  0  0  0  0  0  0  0  0  0  0
    2.9738    1.1693    1.3350 H   0  0  0  0  0  0  0  0  0  0  0  0
    2.3590    3.5298    0.8270 H   0  0  0  0  0  0  0  0  0  0  0  0
   -1.2562    2.1983   -0.9167 H   0  0  0  0  0  0  0  0  0  0  0  0
   -0.4352   -1.2936   -1.0896 H   0  0  0  0  0  0  0  0  0  0  0  0
   -1.9514   -0.2114    1.4709 H   0  0  0  0  0  0  0  0  0  0  0  0
   -2.0376   -1.9493    0.7223 H   0  0  0  0  0  0  0  0  0  0  0  0
   -2.7282    0.8010   -0.7071 H   0  0  0  0  0  0  0  0  0  0  0  0
   -2.6818   -1.1353   -2.6918 H   0  0  0  0  0  0  0  0  0  0  0  0
   -2.9994   -2.2370   -1.3052 H   0  0  0  0  0  0  0  0  0  0  0  0
   -4.7488   -0.2463   -0.8500 H   0  0  0  0  0  0  0  0  0  0  0  0
   -5.1411   -1.5718   -1.7892 H   0  0  0  0  0  0  0  0  0  0  0  0
   -0.6865    0.0000    0.0000 H   0  0  0  0  0  0  0  0  0  0  0  0
  1  2  1  0
  2  3  1  0
  3  4  1  0
  4  5  2  0
  5  6  1  0
  6  7  2  0
  7  8  1  0
  8  9  2  0
  9 10  1  0
 10 11  1  0
 11 12  1  0
 12 13  1  0
 13 14  1  0
  7 15  1  0
  9  4  1  0
 12 10  1  0
  1 17  1  0
  1 18  1  0
  1 19  1  0
  2 20  1  0
  2 21  1  0
  5 22  1  0
  6 23  1  0
  8 24  1  0
 10 25  1  6
 11 26  1  0
 11 27  1  0
 12 28  1  1
 13 29  1  0
 13 30  1  0
 14 31  1  0
 14 32  1  0
 16 33  1  0
M  END
>  <Ligand ID>  (1) 
LIG0004463

>  <Ligand>  (1) 
CHEMBL3416033

>  <SMILES>  (1) 
CCOc1ccc(cc1[C@H]1C[C@@H]1CN)Cl.Cl

>  <CID>  (1) 
118733761.0

>  <ChEMBL ID>  (1) 
nan

>  <InChiKey>  (1) 
NBUQRQMERYFRAJ-SCYNACPDSA-N

>  <InChi>  (1) 
InChI=1S/C12H16ClNO.ClH/c1-2-15-12-4-3-9(13)6-11(12)10-5-8(10)7-14;/h3-4,6,8,10H,2,5,7,14H2,1H3;1H/t8-,10+;/m1./s1

>  <IUPAC Name>  (1) 
[(1S,2S)-2-(5-chloro-2-ethoxyphenyl)cyclopropyl]methanamine;hydrochloride

$$$$
