
     RDKit          3D

 27 27  0  0  0  0  0  0  0  0999 V2000
    4.1916    0.1262   -0.8348 C   0  0  0  0  0  0  0  0  0  0  0  0
    3.2242   -0.0646    0.2850 C   0  0  0  0  0  0  0  0  0  0  0  0
    1.8610    0.0150   -0.1386 O   0  0  0  0  0  0  0  0  0  0  0  0
    0.9262   -0.1595    0.8874 C   0  0  0  0  0  0  0  0  0  0  0  0
    1.2986   -0.3704    2.0899 O   0  0  0  0  0  0  0  0  0  0  0  0
   -0.4992   -0.0966    0.5611 C   0  0  0  0  0  0  0  0  0  0  0  0
   -0.9089    1.2318   -0.0312 C   0  0  0  0  0  0  0  0  0  0  0  0
   -2.3972    1.2792   -0.2132 C   0  0  0  0  0  0  0  0  0  0  0  0
   -3.0990   -0.0103   -0.0050 C   0  0  0  0  0  0  0  0  0  0  0  0
   -2.3773   -1.2504   -0.4400 C   0  0  0  0  0  0  0  0  0  0  0  0
   -0.8910   -1.1367   -0.4922 C   0  0  0  0  0  0  0  0  0  0  0  0
    4.7238   -0.8364   -1.0776 H   0  0  0  0  0  0  0  0  0  0  0  0
    3.7578    0.5844   -1.7391 H   0  0  0  0  0  0  0  0  0  0  0  0
    4.9848    0.8318   -0.5033 H   0  0  0  0  0  0  0  0  0  0  0  0
    3.3325   -1.0633    0.7418 H   0  0  0  0  0  0  0  0  0  0  0  0
    3.3519    0.7292    1.0483 H   0  0  0  0  0  0  0  0  0  0  0  0
   -1.1195   -0.2833    1.4580 H   0  0  0  0  0  0  0  0  0  0  0  0
   -0.4974    2.0849    0.5499 H   0  0  0  0  0  0  0  0  0  0  0  0
   -0.4297    1.2925   -1.0386 H   0  0  0  0  0  0  0  0  0  0  0  0
   -2.7960    2.0109    0.5492 H   0  0  0  0  0  0  0  0  0  0  0  0
   -2.6629    1.7492   -1.1912 H   0  0  0  0  0  0  0  0  0  0  0  0
   -3.4736   -0.0814    1.0566 H   0  0  0  0  0  0  0  0  0  0  0  0
   -4.0594    0.0237   -0.5998 H   0  0  0  0  0  0  0  0  0  0  0  0
   -2.7647   -1.6498   -1.4043 H   0  0  0  0  0  0  0  0  0  0  0  0
   -2.6328   -2.0511    0.3126 H   0  0  0  0  0  0  0  0  0  0  0  0
   -0.6040   -0.7987   -1.5092 H   0  0  0  0  0  0  0  0  0  0  0  0
   -0.4400   -2.1063   -0.2096 H   0  0  0  0  0  0  0  0  0  0  0  0
  1  2  1  0
  2  3  1  0
  3  4  1  0
  4  5  2  0
  4  6  1  0
  6  7  1  0
  7  8  1  0
  8  9  1  0
  9 10  1  0
 10 11  1  0
 11  6  1  0
  1 12  1  0
  1 13  1  0
  1 14  1  0
  2 15  1  0
  2 16  1  0
  6 17  1  0
  7 18  1  0
  7 19  1  0
  8 20  1  0
  8 21  1  0
  9 22  1  0
  9 23  1  0
 10 24  1  0
 10 25  1  0
 11 26  1  0
 11 27  1  0
M  END
>  <Ligand ID>  (1) 
LIG0000472

>  <Ligand>  (1) 
Ethylcyclohexanecarboxylate

>  <SMILES>  (1) 
CCOC(=O)C1CCCCC1

>  <CID>  (1) 
18686.0

>  <ChEMBL ID>  (1) 
nan

>  <InChiKey>  (1) 
JJOYCHKVKWDMEA-UHFFFAOYSA-N

>  <InChi>  (1) 
InChI=1S/C9H16O2/c1-2-11-9(10)8-6-4-3-5-7-8/h8H,2-7H2,1H3

>  <IUPAC Name>  (1) 
ethyl cyclohexanecarboxylate

$$$$
