
     RDKit          3D

 62 64  0  0  0  0  0  0  0  0999 V2000
    8.0605   -3.0479   -0.7872 O   0  0  0  0  0  0  0  0  0  0  0  0
    8.0150   -2.1765    0.3046 C   0  0  0  0  0  0  0  0  0  0  0  0
    7.4330   -2.4932    1.3957 O   0  0  0  0  0  0  0  0  0  0  0  0
    8.6659   -0.8407    0.1826 C   0  0  0  0  0  0  0  0  0  0  0  0
    7.6660    0.2366    0.5734 C   0  0  0  0  0  0  0  0  0  0  0  0
    7.2074    0.0472    1.9109 N   0  0  0  0  0  0  0  0  0  0  0  0
    6.2346    1.0482    2.3129 C   0  0  0  0  0  0  0  0  0  0  0  0
    5.0470    1.0397    1.4293 C   0  0  0  0  0  0  0  0  0  0  0  0
    5.0885    1.8691    0.3033 C   0  0  0  0  0  0  0  0  0  0  0  0
    3.9949    1.8623   -0.5108 C   0  0  0  0  0  0  0  0  0  0  0  0
    2.8648    1.0953   -0.2919 C   0  0  0  0  0  0  0  0  0  0  0  0
    2.8399    0.2862    0.8195 C   0  0  0  0  0  0  0  0  0  0  0  0
    3.9334    0.2624    1.6756 C   0  0  0  0  0  0  0  0  0  0  0  0
    1.7246    1.1299   -1.1929 C   0  0  0  0  0  0  0  0  0  0  0  0
    0.6522    0.4000   -0.9925 N   0  0  0  0  0  0  0  0  0  0  0  0
   -0.4072    0.3203   -1.6753 O   0  0  0  0  0  0  0  0  0  0  0  0
   -1.5281    0.2889   -2.3432 C   0  0  0  0  0  0  0  0  0  0  0  0
   -2.7792   -0.0107   -1.5401 C   0  0  0  0  0  0  0  0  0  0  0  0
   -3.4650    1.0504   -0.9854 C   0  0  0  0  0  0  0  0  0  0  0  0
   -4.6240    0.7914   -0.2404 C   0  0  0  0  0  0  0  0  0  0  0  0
   -5.0778   -0.5096   -0.0613 C   0  0  0  0  0  0  0  0  0  0  0  0
   -4.3834   -1.5914   -0.6231 C   0  0  0  0  0  0  0  0  0  0  0  0
   -3.2286   -1.2998   -1.3630 C   0  0  0  0  0  0  0  0  0  0  0  0
   -4.8375   -2.9927   -0.4501 C   0  0  0  0  0  0  0  0  0  0  0  0
   -3.9384   -3.8057   -1.1374 F   0  0  0  0  0  0  0  0  0  0  0  0
   -4.7330   -3.4199    0.8748 F   0  0  0  0  0  0  0  0  0  0  0  0
   -6.0716   -3.2308   -0.9776 F   0  0  0  0  0  0  0  0  0  0  0  0
   -6.3058   -0.7751    0.7231 C   0  0  0  0  0  0  0  0  0  0  0  0
   -7.5730   -0.6423   -0.1255 C   0  0  0  0  0  0  0  0  0  0  0  0
   -8.3322    0.5179    0.4807 C   0  0  0  0  0  0  0  0  0  0  0  0
   -8.0290    0.3628    1.9489 C   0  0  0  0  0  0  0  0  0  0  0  0
   -6.5148    0.1082    1.9003 C   0  0  0  0  0  0  0  0  0  0  0  0
    1.7132    2.0026   -2.4001 C   0  0  0  0  0  0  0  0  0  0  0  0
    7.7231   -4.0058   -0.5980 H   0  0  0  0  0  0  0  0  0  0  0  0
    9.5479   -0.7905    0.8604 H   0  0  0  0  0  0  0  0  0  0  0  0
    9.0149   -0.7095   -0.8532 H   0  0  0  0  0  0  0  0  0  0  0  0
    8.1872    1.2264    0.4521 H   0  0  0  0  0  0  0  0  0  0  0  0
    6.8189    0.1882   -0.1695 H   0  0  0  0  0  0  0  0  0  0  0  0
    8.0426    0.1713    2.5520 H   0  0  0  0  0  0  0  0  0  0  0  0
    6.7396    2.0553    2.3187 H   0  0  0  0  0  0  0  0  0  0  0  0
    5.9692    0.8231    3.3630 H   0  0  0  0  0  0  0  0  0  0  0  0
    5.9588    2.4891    0.0935 H   0  0  0  0  0  0  0  0  0  0  0  0
    3.9612    2.4919   -1.4176 H   0  0  0  0  0  0  0  0  0  0  0  0
    1.9957   -0.3479    1.0687 H   0  0  0  0  0  0  0  0  0  0  0  0
    3.9572   -0.3655    2.5732 H   0  0  0  0  0  0  0  0  0  0  0  0
   -1.4676   -0.4937   -3.1713 H   0  0  0  0  0  0  0  0  0  0  0  0
   -1.7303    1.2218   -2.9684 H   0  0  0  0  0  0  0  0  0  0  0  0
   -3.1160    2.0686   -1.1182 H   0  0  0  0  0  0  0  0  0  0  0  0
   -5.1068    1.6570    0.1566 H   0  0  0  0  0  0  0  0  0  0  0  0
   -2.6811   -2.1418   -1.8122 H   0  0  0  0  0  0  0  0  0  0  0  0
   -6.3366   -1.8234    1.0962 H   0  0  0  0  0  0  0  0  0  0  0  0
   -7.3437   -0.3430   -1.1641 H   0  0  0  0  0  0  0  0  0  0  0  0
   -8.1634   -1.5532   -0.1796 H   0  0  0  0  0  0  0  0  0  0  0  0
   -7.8806    1.4875    0.1457 H   0  0  0  0  0  0  0  0  0  0  0  0
   -9.3934    0.4114    0.2155 H   0  0  0  0  0  0  0  0  0  0  0  0
   -8.2557    1.2913    2.5140 H   0  0  0  0  0  0  0  0  0  0  0  0
   -8.5658   -0.4666    2.4081 H   0  0  0  0  0  0  0  0  0  0  0  0
   -6.0142    1.0687    1.8262 H   0  0  0  0  0  0  0  0  0  0  0  0
   -6.3041   -0.3936    2.8790 H   0  0  0  0  0  0  0  0  0  0  0  0
    2.5989    1.8682   -3.0515 H   0  0  0  0  0  0  0  0  0  0  0  0
    1.7824    3.0624   -2.0173 H   0  0  0  0  0  0  0  0  0  0  0  0
    0.7497    1.9692   -2.9218 H   0  0  0  0  0  0  0  0  0  0  0  0
  1  2  1  0
  2  3  2  0
  2  4  1  0
  4  5  1  0
  5  6  1  0
  6  7  1  0
  7  8  1  0
  8  9  2  0
  9 10  1  0
 10 11  2  0
 11 12  1  0
 12 13  2  0
 11 14  1  0
 14 15  2  0
 15 16  1  0
 16 17  1  0
 17 18  1  0
 18 19  2  0
 19 20  1  0
 20 21  2  0
 21 22  1  0
 22 23  2  0
 22 24  1  0
 24 25  1  0
 24 26  1  0
 24 27  1  0
 21 28  1  0
 28 29  1  0
 29 30  1  0
 30 31  1  0
 31 32  1  0
 14 33  1  0
 13  8  1  0
 23 18  1  0
 32 28  1  0
  1 34  1  0
  4 35  1  0
  4 36  1  0
  5 37  1  0
  5 38  1  0
  6 39  1  0
  7 40  1  0
  7 41  1  0
  9 42  1  0
 10 43  1  0
 12 44  1  0
 13 45  1  0
 17 46  1  0
 17 47  1  0
 19 48  1  0
 20 49  1  0
 23 50  1  0
 28 51  1  0
 29 52  1  0
 29 53  1  0
 30 54  1  0
 30 55  1  0
 31 56  1  0
 31 57  1  0
 32 58  1  0
 32 59  1  0
 33 60  1  0
 33 61  1  0
 33 62  1  0
M  END
>  <Ligand ID>  (1) 
LIG0005570

>  <Ligand>  (1) 
CHEMBL2336085

>  <SMILES>  (1) 
OC(=O)CCNCc1ccc(cc1)/C(=N/OCc1ccc(c(c1)C(F)(F)F)C1CCCC1)/C

>  <CID>  (1) 
57570459.0

>  <ChEMBL ID>  (1) 
nan

>  <InChiKey>  (1) 
PFGNHNIYZIZTRN-OCSSWDANSA-N

>  <InChi>  (1) 
InChI=1S/C25H29F3N2O3/c1-17(20-9-6-18(7-10-20)15-29-13-12-24(31)32)30-33-16-19-8-11-22(21-4-2-3-5-21)23(14-19)25(26,27)28/h6-11,14,21,29H,2-5,12-13,15-16H2,1H3,(H,31,32)/b30-17+

>  <IUPAC Name>  (1) 
3-[[4-[(E)-N-[[4-cyclopentyl-3-(trifluoromethyl)phenyl]methoxy]-C-methylcarbonimidoyl]phenyl]methylamino]propanoic acid

$$$$
