
     RDKit          3D

 31 31  0  0  0  0  0  0  0  0999 V2000
   -3.9763   -1.1635    0.3979 O   0  0  0  0  0  0  0  0  0  0  0  0
   -2.8768   -1.5745    0.8580 C   0  0  0  0  0  0  0  0  0  0  0  0
   -1.6748   -0.9589    0.5339 O   0  0  0  0  0  0  0  0  0  0  0  0
   -1.5868    0.1457   -0.3127 C   0  0  0  0  0  0  0  0  0  0  0  0
   -0.0956    0.4843   -0.3846 C   0  0  0  0  0  0  0  0  0  0  0  0
    0.7316   -0.6359   -0.9237 C   0  0  0  0  0  0  0  0  0  0  0  0
    1.8207   -1.1218   -0.0226 C   0  0  0  0  0  0  0  0  0  0  0  0
    2.5417    0.0502    0.5491 C   0  0  0  0  0  0  0  0  0  0  0  0
    1.7761    1.0025    1.1115 C   0  0  0  0  0  0  0  0  0  0  0  0
    0.2994    0.7317    1.0742 C   0  0  0  0  0  0  0  0  0  0  0  0
    4.0296    0.1639    0.5020 C   0  0  0  0  0  0  0  0  0  0  0  0
   -2.1232   -0.2161   -1.6778 C   0  0  0  0  0  0  0  0  0  0  0  0
   -2.2773    1.3825    0.1485 C   0  0  0  0  0  0  0  0  0  0  0  0
   -2.9111   -2.4420    1.5272 H   0  0  0  0  0  0  0  0  0  0  0  0
    0.0037    1.4012   -0.9904 H   0  0  0  0  0  0  0  0  0  0  0  0
    0.1070   -1.5153   -1.2449 H   0  0  0  0  0  0  0  0  0  0  0  0
    1.2347   -0.2862   -1.8598 H   0  0  0  0  0  0  0  0  0  0  0  0
    2.5166   -1.7338   -0.6175 H   0  0  0  0  0  0  0  0  0  0  0  0
    1.4550   -1.7682    0.8010 H   0  0  0  0  0  0  0  0  0  0  0  0
    2.2158    1.8706    1.5418 H   0  0  0  0  0  0  0  0  0  0  0  0
    0.1077   -0.2580    1.5799 H   0  0  0  0  0  0  0  0  0  0  0  0
   -0.3004    1.5295    1.5086 H   0  0  0  0  0  0  0  0  0  0  0  0
    4.2892    0.2909   -0.5870 H   0  0  0  0  0  0  0  0  0  0  0  0
    4.4969   -0.7811    0.8173 H   0  0  0  0  0  0  0  0  0  0  0  0
    4.3453    1.0284    1.0895 H   0  0  0  0  0  0  0  0  0  0  0  0
   -1.7636   -1.2029   -2.0364 H   0  0  0  0  0  0  0  0  0  0  0  0
   -1.8193    0.5322   -2.4406 H   0  0  0  0  0  0  0  0  0  0  0  0
   -3.2200   -0.2258   -1.6109 H   0  0  0  0  0  0  0  0  0  0  0  0
   -3.2441    1.5174   -0.4145 H   0  0  0  0  0  0  0  0  0  0  0  0
   -1.6826    2.2966   -0.1442 H   0  0  0  0  0  0  0  0  0  0  0  0
   -2.4193    1.4568    1.2273 H   0  0  0  0  0  0  0  0  0  0  0  0
  1  2  2  0
  2  3  1  0
  3  4  1  0
  4  5  1  0
  5  6  1  0
  6  7  1  0
  7  8  1  0
  8  9  2  0
  9 10  1  0
  8 11  1  0
  4 12  1  0
  4 13  1  0
 10  5  1  0
  2 14  1  0
  5 15  1  0
  6 16  1  0
  6 17  1  0
  7 18  1  0
  7 19  1  0
  9 20  1  0
 10 21  1  0
 10 22  1  0
 11 23  1  0
 11 24  1  0
 11 25  1  0
 12 26  1  0
 12 27  1  0
 12 28  1  0
 13 29  1  0
 13 30  1  0
 13 31  1  0
M  END
>  <Ligand ID>  (1) 
LIG0000772

>  <Ligand>  (1) 
Terpinyl formate

>  <SMILES>  (1) 
O=COC(C1CCC(=CC1)C)(C)C

>  <CID>  (1) 
16537.0

>  <ChEMBL ID>  (1) 
nan

>  <InChiKey>  (1) 
IPYLQIQMGUZFCK-UHFFFAOYSA-N

>  <InChi>  (1) 
InChI=1S/C11H18O2/c1-9-4-6-10(7-5-9)11(2,3)13-8-12/h4,8,10H,5-7H2,1-3H3

>  <IUPAC Name>  (1) 
2-(4-methylcyclohex-3-en-1-yl)propan-2-yl formate

$$$$
