
     RDKit          3D

 54 56  0  0  0  0  0  0  0  0999 V2000
   -3.1127   -1.7779   -0.0107 O   0  0  0  0  0  0  0  0  0  0  0  0
   -3.0957   -0.9578   -1.1524 C   0  0  0  0  0  0  0  0  0  0  0  0
   -4.1271    0.1044   -0.9918 C   0  0  0  0  0  0  0  0  0  0  0  0
   -5.5047   -0.3561   -0.8345 C   0  0  0  0  0  0  0  0  0  0  0  0
   -6.4531    0.5878   -0.4332 C   0  0  0  0  0  0  0  0  0  0  0  0
   -7.7744    0.2322   -0.2600 C   0  0  0  0  0  0  0  0  0  0  0  0
   -8.2242   -1.0595   -0.4715 C   0  0  0  0  0  0  0  0  0  0  0  0
   -7.2891   -2.0044   -0.8706 C   0  0  0  0  0  0  0  0  0  0  0  0
   -5.9569   -1.6338   -1.0425 C   0  0  0  0  0  0  0  0  0  0  0  0
   -5.1043   -2.5805   -1.4289 F   0  0  0  0  0  0  0  0  0  0  0  0
   -7.6595   -3.2923   -1.0964 F   0  0  0  0  0  0  0  0  0  0  0  0
   -1.7468   -0.3169   -1.1948 C   0  0  0  0  0  0  0  0  0  0  0  0
   -1.3192    0.5097   -0.2335 C   0  0  0  0  0  0  0  0  0  0  0  0
    0.0313    1.1511   -0.2759 C   0  0  1  0  0  0  0  0  0  0  0  0
   -0.1503    2.6501   -0.2061 C   0  0  0  0  0  0  0  0  0  0  0  0
   -0.0381    2.9993    1.2646 C   0  0  0  0  0  0  0  0  0  0  0  0
    0.9011    1.9488    1.7464 C   0  0  0  0  0  0  0  0  0  0  0  0
    1.6632    2.1452    2.6870 O   0  0  0  0  0  0  0  0  0  0  0  0
    0.7638    0.7069    0.9450 C   0  0  2  0  0  0  0  0  0  0  0  0
    2.0850    0.0416    0.6866 C   0  0  0  0  0  0  0  0  0  0  0  0
    3.0842    0.8916   -0.0316 C   0  0  0  0  0  0  0  0  0  0  0  0
    4.3114    0.0740   -0.1879 C   0  0  0  0  0  0  0  0  0  0  0  0
    4.5758   -0.7397   -1.2472 C   0  0  0  0  0  0  0  0  0  0  0  0
    5.7552   -1.4657   -1.3006 C   0  0  0  0  0  0  0  0  0  0  0  0
    6.6665   -1.3592   -0.2680 C   0  0  0  0  0  0  0  0  0  0  0  0
    6.4253   -0.5431    0.8169 C   0  0  0  0  0  0  0  0  0  0  0  0
    5.2443    0.1707    0.8491 C   0  0  0  0  0  0  0  0  0  0  0  0
    7.9058   -2.1248   -0.3267 C   0  0  0  0  0  0  0  0  0  0  0  0
    8.1199   -2.8743   -1.3279 O   0  0  0  0  0  0  0  0  0  0  0  0
    8.8387   -2.0353    0.6983 O   0  0  0  0  0  0  0  0  0  0  0  0
   -2.5747   -1.3087    0.6731 H   0  0  0  0  0  0  0  0  0  0  0  0
   -3.1879   -1.5303   -2.0965 H   0  0  0  0  0  0  0  0  0  0  0  0
   -4.1079    0.7276   -1.9344 H   0  0  0  0  0  0  0  0  0  0  0  0
   -3.8276    0.7984   -0.1796 H   0  0  0  0  0  0  0  0  0  0  0  0
   -6.1630    1.6329   -0.2476 H   0  0  0  0  0  0  0  0  0  0  0  0
   -8.4985    0.9743    0.0515 H   0  0  0  0  0  0  0  0  0  0  0  0
   -9.2598   -1.3266   -0.3333 H   0  0  0  0  0  0  0  0  0  0  0  0
   -1.0371   -0.4846   -2.0072 H   0  0  0  0  0  0  0  0  0  0  0  0
   -1.9534    0.7383    0.6156 H   0  0  0  0  0  0  0  0  0  0  0  0
    0.5422    0.8853   -1.2225 H   0  0  0  0  0  0  0  0  0  0  0  0
    0.6644    3.1968   -0.7382 H   0  0  0  0  0  0  0  0  0  0  0  0
   -1.1231    2.9718   -0.6192 H   0  0  0  0  0  0  0  0  0  0  0  0
   -1.0594    2.8571    1.7004 H   0  0  0  0  0  0  0  0  0  0  0  0
    0.3468    4.0251    1.4334 H   0  0  0  0  0  0  0  0  0  0  0  0
    0.1740   -0.0113    1.5786 H   0  0  0  0  0  0  0  0  0  0  0  0
    2.5220   -0.1895    1.6857 H   0  0  0  0  0  0  0  0  0  0  0  0
    1.9403   -0.8966    0.1466 H   0  0  0  0  0  0  0  0  0  0  0  0
    2.7487    1.1800   -1.0577 H   0  0  0  0  0  0  0  0  0  0  0  0
    3.3310    1.8210    0.5023 H   0  0  0  0  0  0  0  0  0  0  0  0
    3.8540   -0.8117   -2.0454 H   0  0  0  0  0  0  0  0  0  0  0  0
    5.9214   -2.1017   -2.1669 H   0  0  0  0  0  0  0  0  0  0  0  0
    7.1542   -0.4632    1.6345 H   0  0  0  0  0  0  0  0  0  0  0  0
    5.0627    0.8014    1.6922 H   0  0  0  0  0  0  0  0  0  0  0  0
    9.7152   -2.5780    0.6807 H   0  0  0  0  0  0  0  0  0  0  0  0
  1  2  1  0
  2  3  1  0
  3  4  1  0
  4  5  2  0
  5  6  1  0
  6  7  2  0
  7  8  1  0
  8  9  2  0
  9 10  1  0
  8 11  1  0
  2 12  1  0
 12 13  2  0
 13 14  1  0
 14 15  1  0
 15 16  1  0
 16 17  1  0
 17 18  2  0
 17 19  1  0
 19 20  1  0
 20 21  1  0
 21 22  1  0
 22 23  2  0
 23 24  1  0
 24 25  2  0
 25 26  1  0
 26 27  2  0
 25 28  1  0
 28 29  2  0
 28 30  1  0
  9  4  1  0
 19 14  1  0
 27 22  1  0
  1 31  1  0
  2 32  1  0
  3 33  1  0
  3 34  1  0
  5 35  1  0
  6 36  1  0
  7 37  1  0
 12 38  1  0
 13 39  1  0
 14 40  1  6
 15 41  1  0
 15 42  1  0
 16 43  1  0
 16 44  1  0
 19 45  1  1
 20 46  1  0
 20 47  1  0
 21 48  1  0
 21 49  1  0
 23 50  1  0
 24 51  1  0
 26 52  1  0
 27 53  1  0
 30 54  1  0
M  END
>  <Ligand ID>  (1) 
LIG0002916

>  <Ligand>  (1) 
CHEMBL3981554

>  <SMILES>  (1) 
OC(Cc1cccc(c1F)F)/C=C/[C@H]1CCC(=O)[C@@H]1CCc1ccc(cc1)C(=O)O

>  <CID>  (1) 
118517488.0

>  <ChEMBL ID>  (1) 
nan

>  <InChiKey>  (1) 
ZHIYYJVFRSDGIT-SATSMNEMSA-N

>  <InChi>  (1) 
InChI=1S/C24H24F2O4/c25-21-3-1-2-18(23(21)26)14-19(27)11-9-16-10-13-22(28)20(16)12-6-15-4-7-17(8-5-15)24(29)30/h1-5,7-9,11,16,19-20,27H,6,10,12-14H2,(H,29,30)/b11-9+/t16-,19?,20+/m0/s1

>  <IUPAC Name>  (1) 
4-[2-[(1R,2R)-2-[(E)-4-(2,3-difluorophenyl)-3-hydroxybut-1-enyl]-5-oxocyclopentyl]ethyl]benzoic acid

$$$$
