
     RDKit          3D

 89 91  0  0  0  0  0  0  0  0999 V2000
   -6.0446    2.5072   -1.6327 C   0  0  0  0  0  0  0  0  0  0  0  0
   -5.5569    1.6383   -0.5030 C   0  0  0  0  0  0  0  0  0  0  0  0
   -5.4543    2.1177    0.6414 O   0  0  0  0  0  0  0  0  0  0  0  0
   -5.2437    0.2974   -0.8529 N   0  0  0  0  0  0  0  0  0  0  0  0
   -4.7609   -0.6948    0.0763 C   0  0  2  0  0  0  0  0  0  0  0  0
   -3.2987   -0.9176   -0.0331 C   0  0  0  0  0  0  0  0  0  0  0  0
   -2.6542   -1.7823    0.5867 O   0  0  0  0  0  0  0  0  0  0  0  0
   -2.6019   -0.0395   -0.9400 N   0  0  0  0  0  0  0  0  0  0  0  0
   -1.1850   -0.1721   -1.1222 C   0  0  2  0  0  0  0  0  0  0  0  0
   -0.4415    0.9439   -0.4106 C   0  0  0  0  0  0  0  0  0  0  0  0
   -1.1983    1.7430    0.1818 O   0  0  0  0  0  0  0  0  0  0  0  0
    0.9462    0.9764   -0.4737 N   0  0  0  0  0  0  0  0  0  0  0  0
    1.9327    1.8330    0.0387 C   0  0  2  0  0  0  0  0  0  0  0  0
    3.1512    1.1064    0.4238 C   0  0  0  0  0  0  0  0  0  0  0  0
    4.0834    1.8097    0.9392 O   0  0  0  0  0  0  0  0  0  0  0  0
    3.3869   -0.2620    0.2846 N   0  0  0  0  0  0  0  0  0  0  0  0
    4.6447   -0.9179    0.7072 C   0  0  2  0  0  0  0  0  0  0  0  0
    5.3380   -1.2261   -0.5721 C   0  0  0  0  0  0  0  0  0  0  0  0
    6.4844   -1.7576   -0.6173 O   0  0  0  0  0  0  0  0  0  0  0  0
    4.7563   -0.9407   -1.8526 N   0  0  0  0  0  0  0  0  0  0  0  0
    4.3335   -2.2108    1.4022 C   0  0  0  0  0  0  0  0  0  0  0  0
    5.4621   -2.9896    1.8851 C   0  0  0  0  0  0  0  0  0  0  0  0
    5.9574   -2.7512    3.1531 C   0  0  0  0  0  0  0  0  0  0  0  0
    7.0173   -3.4632    3.6900 C   0  0  0  0  0  0  0  0  0  0  0  0
    7.6072   -4.4538    2.9318 C   0  0  0  0  0  0  0  0  0  0  0  0
    7.1154   -4.7000    1.6563 C   0  0  0  0  0  0  0  0  0  0  0  0
    6.0686   -3.9895    1.1372 C   0  0  0  0  0  0  0  0  0  0  0  0
    1.6129    2.8919    1.0383 C   0  0  0  0  0  0  0  0  0  0  0  0
    0.7312    4.0091    0.6013 C   0  0  0  0  0  0  0  0  0  0  0  0
    0.4733    4.9571    1.7693 C   0  0  0  0  0  0  0  0  0  0  0  0
   -0.3961    6.0445    1.3549 N   0  0  0  0  0  0  0  0  0  0  0  0
   -0.0844    7.2873    1.5541 C   0  0  0  0  0  0  0  0  0  0  0  0
   -0.9858    8.3178    1.1239 N   0  0  0  0  0  0  0  0  0  0  0  0
    1.1391    7.6016    2.1929 N   0  0  0  0  0  0  0  0  0  0  0  0
   -0.7649   -0.1528   -2.5623 C   0  0  0  0  0  0  0  0  0  0  0  0
   -1.3827   -1.2577   -3.3426 C   0  0  0  0  0  0  0  0  0  0  0  0
   -2.6058   -1.1022   -3.9813 C   0  0  0  0  0  0  0  0  0  0  0  0
   -3.1126   -2.1926   -4.6888 C   0  0  0  0  0  0  0  0  0  0  0  0
   -2.4212   -3.3822   -4.7502 C   0  0  0  0  0  0  0  0  0  0  0  0
   -1.2103   -3.5309   -4.1165 C   0  0  0  0  0  0  0  0  0  0  0  0
   -0.6797   -2.4615   -3.4033 C   0  0  0  0  0  0  0  0  0  0  0  0
   -5.5942   -1.9135    0.2179 C   0  0  0  0  0  0  0  0  0  0  0  0
   -5.0736   -2.9212    1.1838 C   0  0  0  0  0  0  0  0  0  0  0  0
   -4.2324   -3.9902    0.9570 C   0  0  0  0  0  0  0  0  0  0  0  0
   -4.0145   -4.6676    2.1148 N   0  0  0  0  0  0  0  0  0  0  0  0
   -4.7306   -4.0092    3.0579 C   0  0  0  0  0  0  0  0  0  0  0  0
   -5.3563   -2.9753    2.5051 N   0  0  0  0  0  0  0  0  0  0  0  0
   -5.5033    2.2626   -2.5848 H   0  0  0  0  0  0  0  0  0  0  0  0
   -5.8583    3.5655   -1.4109 H   0  0  0  0  0  0  0  0  0  0  0  0
   -7.1136    2.3384   -1.7469 H   0  0  0  0  0  0  0  0  0  0  0  0
   -5.3609   -0.0369   -1.8568 H   0  0  0  0  0  0  0  0  0  0  0  0
   -4.8386   -0.1662    1.0896 H   0  0  0  0  0  0  0  0  0  0  0  0
   -3.1206    0.6974   -1.4712 H   0  0  0  0  0  0  0  0  0  0  0  0
   -0.8701   -1.1391   -0.6818 H   0  0  0  0  0  0  0  0  0  0  0  0
    1.3663    0.1504   -1.0682 H   0  0  0  0  0  0  0  0  0  0  0  0
    2.2644    2.5306   -0.8605 H   0  0  0  0  0  0  0  0  0  0  0  0
    2.6870   -0.8862   -0.1179 H   0  0  0  0  0  0  0  0  0  0  0  0
    5.2365   -0.2240    1.3190 H   0  0  0  0  0  0  0  0  0  0  0  0
    4.5541    0.0766   -2.0549 H   0  0  0  0  0  0  0  0  0  0  0  0
    4.5393   -1.6843   -2.5543 H   0  0  0  0  0  0  0  0  0  0  0  0
    3.7172   -2.8661    0.7222 H   0  0  0  0  0  0  0  0  0  0  0  0
    3.6896   -1.9677    2.2771 H   0  0  0  0  0  0  0  0  0  0  0  0
    5.4941   -1.9688    3.7611 H   0  0  0  0  0  0  0  0  0  0  0  0
    7.3916   -3.2653    4.6840 H   0  0  0  0  0  0  0  0  0  0  0  0
    8.4454   -5.0568    3.2844 H   0  0  0  0  0  0  0  0  0  0  0  0
    7.5954   -5.4828    1.0714 H   0  0  0  0  0  0  0  0  0  0  0  0
    5.7294   -4.2338    0.1388 H   0  0  0  0  0  0  0  0  0  0  0  0
    2.6044    3.3773    1.3125 H   0  0  0  0  0  0  0  0  0  0  0  0
    1.3023    2.4636    2.0263 H   0  0  0  0  0  0  0  0  0  0  0  0
   -0.1030    3.8657   -0.0389 H   0  0  0  0  0  0  0  0  0  0  0  0
    1.4423    4.6528   -0.0756 H   0  0  0  0  0  0  0  0  0  0  0  0
    1.3763    5.2957    2.2725 H   0  0  0  0  0  0  0  0  0  0  0  0
   -0.1077    4.3563    2.5239 H   0  0  0  0  0  0  0  0  0  0  0  0
   -0.6925    9.1056    0.5221 H   0  0  0  0  0  0  0  0  0  0  0  0
   -1.9774    8.2078    1.4721 H   0  0  0  0  0  0  0  0  0  0  0  0
    1.2176    7.7886    3.2258 H   0  0  0  0  0  0  0  0  0  0  0  0
    2.0384    7.6646    1.6595 H   0  0  0  0  0  0  0  0  0  0  0  0
   -1.2213    0.7894   -2.9931 H   0  0  0  0  0  0  0  0  0  0  0  0
    0.3062   -0.0642   -2.7484 H   0  0  0  0  0  0  0  0  0  0  0  0
   -3.1233   -0.1609   -3.9125 H   0  0  0  0  0  0  0  0  0  0  0  0
   -4.0596   -2.0371   -5.1675 H   0  0  0  0  0  0  0  0  0  0  0  0
   -2.8325   -4.2235   -5.3070 H   0  0  0  0  0  0  0  0  0  0  0  0
   -0.6826   -4.4835   -4.1802 H   0  0  0  0  0  0  0  0  0  0  0  0
    0.2672   -2.5565   -2.8944 H   0  0  0  0  0  0  0  0  0  0  0  0
   -6.6566   -1.6574    0.4882 H   0  0  0  0  0  0  0  0  0  0  0  0
   -5.7231   -2.4902   -0.7434 H   0  0  0  0  0  0  0  0  0  0  0  0
   -3.7951   -4.2673   -0.0046 H   0  0  0  0  0  0  0  0  0  0  0  0
   -4.7911   -4.2693    4.1123 H   0  0  0  0  0  0  0  0  0  0  0  0
   -5.9904   -2.2578    2.9599 H   0  0  0  0  0  0  0  0  0  0  0  0
  1  2  1  0
  2  3  2  0
  2  4  1  0
  4  5  1  0
  5  6  1  0
  6  7  2  0
  6  8  1  0
  8  9  1  0
  9 10  1  0
 10 11  2  0
 10 12  1  0
 12 13  1  0
 13 14  1  0
 14 15  2  0
 14 16  1  0
 16 17  1  0
 17 18  1  0
 18 19  2  0
 18 20  1  0
 17 21  1  0
 21 22  1  0
 22 23  2  0
 23 24  1  0
 24 25  2  0
 25 26  1  0
 26 27  2  0
 13 28  1  0
 28 29  1  0
 29 30  1  0
 30 31  1  0
 31 32  2  3
 32 33  1  0
 32 34  1  0
  9 35  1  0
 35 36  1  0
 36 37  2  0
 37 38  1  0
 38 39  2  0
 39 40  1  0
 40 41  2  0
  5 42  1  0
 42 43  1  0
 43 44  2  0
 44 45  1  0
 45 46  2  0
 46 47  1  0
 27 22  1  0
 41 36  1  0
 47 43  1  0
  1 48  1  0
  1 49  1  0
  1 50  1  0
  4 51  1  0
  5 52  1  1
  8 53  1  0
  9 54  1  1
 12 55  1  0
 13 56  1  6
 16 57  1  0
 17 58  1  1
 20 59  1  0
 20 60  1  0
 21 61  1  0
 21 62  1  0
 23 63  1  0
 24 64  1  0
 25 65  1  0
 26 66  1  0
 27 67  1  0
 28 68  1  0
 28 69  1  0
 29 70  1  0
 29 71  1  0
 30 72  1  0
 30 73  1  0
 33 74  1  0
 33 75  1  0
 34 76  1  0
 34 77  1  0
 35 78  1  0
 35 79  1  0
 37 80  1  0
 38 81  1  0
 39 82  1  0
 40 83  1  0
 41 84  1  0
 42 85  1  0
 42 86  1  0
 44 87  1  0
 46 88  1  0
 47 89  1  0
M  END
>  <Ligand ID>  (1) 
LIG0001406

>  <Ligand>  (1) 
CHEMBL154251

>  <SMILES>  (1) 
CC(=O)N[C@H](C(=O)N[C@H](C(=O)N[C@H](C(=O)N[C@H](C(=O)N)Cc1ccccc1)CCCN=C(N)N)Cc1ccccc1)Cc1cnc[nH]1

>  <CID>  (1) 
44369097.0

>  <ChEMBL ID>  (1) 
nan

>  <InChiKey>  (1) 
LIEAUBZBWVCSAC-FWEHEUNISA-N

>  <InChi>  (1) 
InChI=1S/C32H42N10O5/c1-20(43)39-27(17-23-18-36-19-38-23)31(47)42-26(16-22-11-6-3-7-12-22)30(46)40-24(13-8-14-37-32(34)35)29(45)41-25(28(33)44)15-21-9-4-2-5-10-21/h2-7,9-12,18-19,24-27H,8,13-17H2,1H3,(H2,33,44)(H,36,38)(H,39,43)(H,40,46)(H,41,45)(H,42,47)(H4,34,35,37)/t24-,25-,26-,27-/m0/s1

>  <IUPAC Name>  (1) 
(2S)-2-[[(2S)-2-[[(2S)-2-acetamido-3-(1H-imidazol-5-yl)propanoyl]amino]-3-phenylpropanoyl]amino]-N-[(2S)-1-amino-1-oxo-3-phenylpropan-2-yl]-5-(diaminomethylideneamino)pentanamide

$$$$
