
     RDKit          3D

 22 22  0  0  0  0  0  0  0  0999 V2000
    3.4185    0.9734   -0.1635 O   0  0  0  0  0  0  0  0  0  0  0  0
    2.0345    0.8420   -0.4058 C   0  0  0  0  0  0  0  0  0  0  0  0
    1.6239    1.4065   -1.4537 O   0  0  0  0  0  0  0  0  0  0  0  0
    1.1776    0.0910    0.5272 C   0  0  1  0  0  0  0  0  0  0  0  0
    0.4785   -1.0828   -0.0651 C   0  0  0  0  0  0  0  0  0  0  0  0
   -0.4503   -0.7898   -1.1998 C   0  0  0  0  0  0  0  0  0  0  0  0
   -1.5470    0.1570   -0.7070 C   0  0  0  0  0  0  0  0  0  0  0  0
   -1.4882    1.4425   -1.0463 N   0  0  0  0  0  0  0  0  0  0  0  0
   -3.0109    2.0627   -0.2012 S   0  0  0  0  0  0  0  0  0  0  0  0
   -3.4470    0.6113    0.4223 N   0  0  0  0  0  0  0  0  0  0  0  0
   -2.5628   -0.2578    0.0509 C   0  0  0  0  0  0  0  0  0  0  0  0
   -2.6700   -1.5107    0.4144 O   0  0  0  0  0  0  0  0  0  0  0  0
    1.9949   -0.4386    1.6314 N   0  0  0  0  0  0  0  0  0  0  0  0
    4.0270    1.2547   -0.9006 H   0  0  0  0  0  0  0  0  0  0  0  0
    0.4728    0.8171    0.9788 H   0  0  0  0  0  0  0  0  0  0  0  0
    1.1727   -1.8989   -0.3455 H   0  0  0  0  0  0  0  0  0  0  0  0
   -0.1361   -1.5258    0.7604 H   0  0  0  0  0  0  0  0  0  0  0  0
    0.0061   -0.4227   -2.1131 H   0  0  0  0  0  0  0  0  0  0  0  0
   -0.9879   -1.7202   -1.4739 H   0  0  0  0  0  0  0  0  0  0  0  0
   -4.3675    0.3617    1.0785 H   0  0  0  0  0  0  0  0  0  0  0  0
    1.3955   -0.4756    2.4789 H   0  0  0  0  0  0  0  0  0  0  0  0
    2.8658    0.1030    1.7327 H   0  0  0  0  0  0  0  0  0  0  0  0
  1  2  1  0
  2  3  2  0
  2  4  1  0
  4  5  1  0
  5  6  1  0
  6  7  1  0
  7  8  2  0
  8  9  1  0
  9 10  1  0
 10 11  1  0
 11 12  2  0
  4 13  1  0
 11  7  1  0
  1 14  1  0
  4 15  1  1
  5 16  1  0
  5 17  1  0
  6 18  1  0
  6 19  1  0
 10 20  1  0
 13 21  1  0
 13 22  1  0
M  END
>  <Ligand ID>  (1) 
LIG0000487

>  <Ligand>  (1) 
CHEMBL334842

>  <SMILES>  (1) 
OC(=O)[C@@H](CCc1ns[nH]c1=O)N

>  <CID>  (1) 
9837114.0

>  <ChEMBL ID>  (1) 
nan

>  <InChiKey>  (1) 
AJASJCCJLLTPOF-GSVOUGTGSA-N

>  <InChi>  (1) 
InChI=1S/C6H9N3O3S/c7-3(6(11)12)1-2-4-5(10)9-13-8-4/h3H,1-2,7H2,(H,9,10)(H,11,12)/t3-/m1/s1

>  <IUPAC Name>  (1) 
(2R)-2-amino-4-(4-oxo-1,2,5-thiadiazol-3-yl)butanoic acid

$$$$
