
     RDKit          3D

 24 24  0  0  0  0  0  0  0  0999 V2000
   -2.0264    0.2445    1.6154 C   0  0  0  0  0  0  0  0  0  0  0  0
   -1.6104    0.8237    0.3053 C   0  0  0  0  0  0  0  0  0  0  0  0
   -0.8910   -0.1560   -0.5463 C   0  0  0  0  0  0  0  0  0  0  0  0
   -1.4466   -0.8370   -1.5924 N   0  0  0  0  0  0  0  0  0  0  0  0
   -2.7552   -0.7176   -2.0376 O   0  0  0  0  0  0  0  0  0  0  0  0
   -0.5782   -1.6373   -2.1412 N   0  0  0  0  0  0  0  0  0  0  0  0
    0.5920   -1.5142   -1.4742 C   0  0  0  0  0  0  0  0  0  0  0  0
    0.4105   -0.5872   -0.4704 C   0  0  0  0  0  0  0  0  0  0  0  0
    1.4487   -0.1659    0.4658 C   0  0  0  0  0  0  0  0  0  0  0  0
    2.7335    0.0555   -0.2853 C   0  0  0  0  0  0  0  0  0  0  0  0
    3.2654   -0.8336   -0.9877 O   0  0  0  0  0  0  0  0  0  0  0  0
    3.3872    1.2812   -0.2230 O   0  0  0  0  0  0  0  0  0  0  0  0
    1.0915    1.0453    1.1970 N   0  0  0  0  0  0  0  0  0  0  0  0
   -2.2262   -0.8503    1.4610 H   0  0  0  0  0  0  0  0  0  0  0  0
   -1.2899    0.3670    2.4275 H   0  0  0  0  0  0  0  0  0  0  0  0
   -3.0364    0.6466    1.9220 H   0  0  0  0  0  0  0  0  0  0  0  0
   -1.0338    1.7692    0.4072 H   0  0  0  0  0  0  0  0  0  0  0  0
   -2.5512    1.1202   -0.2245 H   0  0  0  0  0  0  0  0  0  0  0  0
   -3.4416   -1.2504   -1.5006 H   0  0  0  0  0  0  0  0  0  0  0  0
    1.4631   -2.0875   -1.7552 H   0  0  0  0  0  0  0  0  0  0  0  0
    1.6680   -0.9404    1.2267 H   0  0  0  0  0  0  0  0  0  0  0  0
    3.9205    1.5584   -1.0326 H   0  0  0  0  0  0  0  0  0  0  0  0
    1.0874    0.8954    2.2402 H   0  0  0  0  0  0  0  0  0  0  0  0
    1.8190    1.7706    1.0027 H   0  0  0  0  0  0  0  0  0  0  0  0
  1  2  1  0
  2  3  1  0
  3  4  1  0
  4  5  1  0
  4  6  1  0
  6  7  2  0
  7  8  1  0
  8  9  1  0
  9 10  1  0
 10 11  2  0
 10 12  1  0
  9 13  1  0
  8  3  2  0
  1 14  1  0
  1 15  1  0
  1 16  1  0
  2 17  1  0
  2 18  1  0
  5 19  1  0
  7 20  1  0
  9 21  1  0
 12 22  1  0
 13 23  1  0
 13 24  1  0
M  END
>  <Ligand ID>  (1) 
LIG0001750

>  <Ligand>  (1) 
CHEMBL390863

>  <SMILES>  (1) 
CCc1n(O)ncc1C(C(=O)O)N

>  <CID>  (1) 
44428730.0

>  <ChEMBL ID>  (1) 
nan

>  <InChiKey>  (1) 
LIZSERNRAMXZGL-UHFFFAOYSA-N

>  <InChi>  (1) 
InChI=1S/C7H11N3O3/c1-2-5-4(3-9-10(5)13)6(8)7(11)12/h3,6,13H,2,8H2,1H3,(H,11,12)

>  <IUPAC Name>  (1) 
2-amino-2-(5-ethyl-1-hydroxypyrazol-4-yl)acetic acid

$$$$
