
     RDKit          3D

 44 46  0  0  0  0  0  0  0  0999 V2000
   -4.8492   -2.1987   -3.2349 O   0  0  0  0  0  0  0  0  0  0  0  0
   -5.2131   -1.5121   -2.0701 C   0  0  0  0  0  0  0  0  0  0  0  0
   -5.1643   -2.1637   -1.0133 O   0  0  0  0  0  0  0  0  0  0  0  0
   -5.6086   -0.1095   -2.2283 C   0  0  0  0  0  0  0  0  0  0  0  0
   -5.9724    0.6059   -0.9618 C   0  0  0  0  0  0  0  0  0  0  0  0
   -4.8947    0.6833    0.0403 C   0  0  0  0  0  0  0  0  0  0  0  0
   -4.7298   -0.1502    1.1073 C   0  0  0  0  0  0  0  0  0  0  0  0
   -3.6655   -0.0085    1.9852 C   0  0  0  0  0  0  0  0  0  0  0  0
   -2.7147    0.9967    1.8147 C   0  0  0  0  0  0  0  0  0  0  0  0
   -2.8907    1.8301    0.7386 C   0  0  0  0  0  0  0  0  0  0  0  0
   -3.9476    1.6858   -0.1301 C   0  0  0  0  0  0  0  0  0  0  0  0
   -1.7020    1.0618    2.7265 O   0  0  0  0  0  0  0  0  0  0  0  0
   -0.6304    1.9298    2.8146 C   0  0  0  0  0  0  0  0  0  0  0  0
    0.2966    1.9131    1.6483 C   0  0  0  0  0  0  0  0  0  0  0  0
    0.5823    2.3488    0.5978 N   0  0  0  0  0  0  0  0  0  0  0  0
    1.5855    1.9927   -0.1371 N   0  0  0  0  0  0  0  0  0  0  0  0
    2.3797    1.1802    0.1119 C   0  0  0  0  0  0  0  0  0  0  0  0
    1.7098    0.6350    1.8290 S   0  0  0  0  0  0  0  0  0  0  0  0
    3.5745    0.5149   -0.3856 C   0  0  0  0  0  0  0  0  0  0  0  0
    4.0066    0.8880   -1.5269 O   0  0  0  0  0  0  0  0  0  0  0  0
    4.2605   -0.5049    0.3283 N   0  0  0  0  0  0  0  0  0  0  0  0
    5.4178   -1.0589   -0.2951 C   0  0  0  0  0  0  0  0  0  0  0  0
    6.6239   -0.4309   -0.0110 C   0  0  0  0  0  0  0  0  0  0  0  0
    7.8125   -0.8779   -0.5566 C   0  0  0  0  0  0  0  0  0  0  0  0
    7.7708   -1.9728   -1.3978 C   0  0  0  0  0  0  0  0  0  0  0  0
    6.5583   -2.5911   -1.6733 C   0  0  0  0  0  0  0  0  0  0  0  0
    5.3685   -2.1521   -1.1336 C   0  0  0  0  0  0  0  0  0  0  0  0
    6.5148   -3.6758   -2.5061 F   0  0  0  0  0  0  0  0  0  0  0  0
    8.9090   -2.4475   -1.9563 F   0  0  0  0  0  0  0  0  0  0  0  0
   -4.3692   -3.0762   -3.1690 H   0  0  0  0  0  0  0  0  0  0  0  0
   -6.5231   -0.1300   -2.8819 H   0  0  0  0  0  0  0  0  0  0  0  0
   -4.8017    0.4288   -2.7878 H   0  0  0  0  0  0  0  0  0  0  0  0
   -6.8782    0.0884   -0.5217 H   0  0  0  0  0  0  0  0  0  0  0  0
   -6.3471    1.6338   -1.1934 H   0  0  0  0  0  0  0  0  0  0  0  0
   -5.4231   -0.9316    1.3150 H   0  0  0  0  0  0  0  0  0  0  0  0
   -3.5710   -0.6964    2.8244 H   0  0  0  0  0  0  0  0  0  0  0  0
   -2.1794    2.6223    0.5736 H   0  0  0  0  0  0  0  0  0  0  0  0
   -4.0315    2.3747   -0.9599 H   0  0  0  0  0  0  0  0  0  0  0  0
   -0.9183    2.9953    2.9421 H   0  0  0  0  0  0  0  0  0  0  0  0
   -0.1005    1.6875    3.7831 H   0  0  0  0  0  0  0  0  0  0  0  0
    3.9058   -0.8068    1.2583 H   0  0  0  0  0  0  0  0  0  0  0  0
    6.6542    0.4236    0.6459 H   0  0  0  0  0  0  0  0  0  0  0  0
    8.7680   -0.4108   -0.3551 H   0  0  0  0  0  0  0  0  0  0  0  0
    4.4268   -2.6141   -1.3335 H   0  0  0  0  0  0  0  0  0  0  0  0
  1  2  1  0
  2  3  2  0
  2  4  1  0
  4  5  1  0
  5  6  1  0
  6  7  2  0
  7  8  1  0
  8  9  2  0
  9 10  1  0
 10 11  2  0
  9 12  1  0
 12 13  1  0
 13 14  1  0
 14 15  2  0
 15 16  1  0
 16 17  2  0
 17 18  1  0
 17 19  1  0
 19 20  2  0
 19 21  1  0
 21 22  1  0
 22 23  2  0
 23 24  1  0
 24 25  2  0
 25 26  1  0
 26 27  2  0
 26 28  1  0
 25 29  1  0
 11  6  1  0
 18 14  1  0
 27 22  1  0
  1 30  1  0
  4 31  1  0
  4 32  1  0
  5 33  1  0
  5 34  1  0
  7 35  1  0
  8 36  1  0
 10 37  1  0
 11 38  1  0
 13 39  1  0
 13 40  1  0
 21 41  1  0
 23 42  1  0
 24 43  1  0
 27 44  1  0
M  END
>  <Ligand ID>  (1) 
LIG0001235

>  <Ligand>  (1) 
CHEMBL3805952

>  <SMILES>  (1) 
OC(=O)CCc1ccc(cc1)OCc1nnc(s1)C(=O)Nc1ccc(c(c1)F)F

>  <CID>  (1) 
127050770.0

>  <ChEMBL ID>  (1) 
nan

>  <InChiKey>  (1) 
YCKOJEXQUBDOSS-UHFFFAOYSA-N

>  <InChi>  (1) 
InChI=1S/C19H15F2N3O4S/c20-14-7-4-12(9-15(14)21)22-18(27)19-24-23-16(29-19)10-28-13-5-1-11(2-6-13)3-8-17(25)26/h1-2,4-7,9H,3,8,10H2,(H,22,27)(H,25,26)

>  <IUPAC Name>  (1) 
3-[4-[[5-[(3,4-difluorophenyl)carbamoyl]-1,3,4-thiadiazol-2-yl]methoxy]phenyl]propanoic acid

$$$$
