
     RDKit          3D

 69 72  0  0  0  0  0  0  0  0999 V2000
    5.9283    1.3707    0.0396 O   0  0  0  0  0  0  0  0  0  0  0  0
    5.1594    0.5250   -0.7180 C   0  0  2  0  0  0  0  0  0  0  0  0
    5.9104   -0.6154   -1.3420 C   0  0  0  0  0  0  0  0  0  0  0  0
    6.5899   -1.4425   -0.5288 O   0  0  0  0  0  0  0  0  0  0  0  0
    7.6531   -1.3496    0.2681 C   0  0  0  0  0  0  0  0  0  0  0  0
    8.4814   -0.2711    0.4917 C   0  0  0  0  0  0  0  0  0  0  0  0
    9.5623   -0.3296    1.3699 C   0  0  0  0  0  0  0  0  0  0  0  0
    9.8486   -1.4838    2.0560 C   0  0  0  0  0  0  0  0  0  0  0  0
    9.0525   -2.5699    1.8592 C   0  0  0  0  0  0  0  0  0  0  0  0
    7.9930   -2.5077    0.9978 C   0  0  0  0  0  0  0  0  0  0  0  0
   10.9405   -1.4593    2.9103 O   0  0  0  0  0  0  0  0  0  0  0  0
    4.5471    1.3378   -1.8700 C   0  0  0  0  0  0  0  0  0  0  0  0
    3.7474    2.3921   -1.3694 N   0  0  0  0  0  0  0  0  0  0  0  0
    2.5355    1.9374   -0.7662 C   0  0  0  0  0  0  0  0  0  0  0  0
    1.6243    1.3991   -1.8527 C   0  0  0  0  0  0  0  0  0  0  0  0
    0.3173    0.9239   -1.3394 C   0  0  0  0  0  0  0  0  0  0  0  0
    0.0422   -0.3715   -0.9797 C   0  0  0  0  0  0  0  0  0  0  0  0
   -1.2347   -0.7078   -0.5048 C   0  0  0  0  0  0  0  0  0  0  0  0
   -2.2016    0.2690   -0.4043 C   0  0  0  0  0  0  0  0  0  0  0  0
   -1.9406    1.6015   -0.7671 C   0  0  0  0  0  0  0  0  0  0  0  0
   -0.6802    1.9003   -1.2289 C   0  0  0  0  0  0  0  0  0  0  0  0
   -3.5290    0.0260    0.0530 N   0  0  0  0  0  0  0  0  0  0  0  0
   -4.5579   -0.2884   -0.8451 C   0  0  0  0  0  0  0  0  0  0  0  0
   -4.2151   -0.3479   -2.0849 O   0  0  0  0  0  0  0  0  0  0  0  0
   -5.9663   -0.5523   -0.5074 C   0  0  0  0  0  0  0  0  0  0  0  0
   -6.1103   -1.5825    0.5406 C   0  0  0  0  0  0  0  0  0  0  0  0
   -5.9199   -1.3699    1.8833 C   0  0  0  0  0  0  0  0  0  0  0  0
   -6.0559   -2.3730    2.8328 C   0  0  0  0  0  0  0  0  0  0  0  0
   -6.3986   -3.6555    2.4371 C   0  0  0  0  0  0  0  0  0  0  0  0
   -6.5933   -3.8917    1.1053 C   0  0  0  0  0  0  0  0  0  0  0  0
   -6.4538   -2.8863    0.1766 C   0  0  0  0  0  0  0  0  0  0  0  0
   -6.6564    0.7186   -0.2142 C   0  0  0  0  0  0  0  0  0  0  0  0
   -6.0554    1.8711    0.2169 C   0  0  0  0  0  0  0  0  0  0  0  0
   -6.7453    3.0455    0.4780 C   0  0  0  0  0  0  0  0  0  0  0  0
   -8.1088    3.0818    0.3021 C   0  0  0  0  0  0  0  0  0  0  0  0
   -8.7585    1.9332   -0.1345 C   0  0  0  0  0  0  0  0  0  0  0  0
   -8.0353    0.7641   -0.3892 C   0  0  0  0  0  0  0  0  0  0  0  0
    5.8710    2.3215   -0.2487 H   0  0  0  0  0  0  0  0  0  0  0  0
    4.3591    0.1296   -0.0927 H   0  0  0  0  0  0  0  0  0  0  0  0
    6.5566   -0.1540   -2.1635 H   0  0  0  0  0  0  0  0  0  0  0  0
    5.1364   -1.1673   -1.9763 H   0  0  0  0  0  0  0  0  0  0  0  0
    8.3522    0.6480   -0.0184 H   0  0  0  0  0  0  0  0  0  0  0  0
   10.1973    0.5605    1.5199 H   0  0  0  0  0  0  0  0  0  0  0  0
    9.3039   -3.4745    2.4177 H   0  0  0  0  0  0  0  0  0  0  0  0
    7.3985   -3.4137    0.8896 H   0  0  0  0  0  0  0  0  0  0  0  0
   11.7554   -0.9219    2.6541 H   0  0  0  0  0  0  0  0  0  0  0  0
    4.0607    0.6181   -2.5513 H   0  0  0  0  0  0  0  0  0  0  0  0
    5.4371    1.7046   -2.4572 H   0  0  0  0  0  0  0  0  0  0  0  0
    3.5085    3.0466   -2.1430 H   0  0  0  0  0  0  0  0  0  0  0  0
    2.7115    1.2111    0.0278 H   0  0  0  0  0  0  0  0  0  0  0  0
    2.0376    2.8611   -0.3266 H   0  0  0  0  0  0  0  0  0  0  0  0
    2.0748    0.5263   -2.3701 H   0  0  0  0  0  0  0  0  0  0  0  0
    1.4331    2.1822   -2.6133 H   0  0  0  0  0  0  0  0  0  0  0  0
    0.8227   -1.1148   -1.0698 H   0  0  0  0  0  0  0  0  0  0  0  0
   -1.4712   -1.7347   -0.2159 H   0  0  0  0  0  0  0  0  0  0  0  0
   -2.6936    2.3712   -0.6904 H   0  0  0  0  0  0  0  0  0  0  0  0
   -0.5001    2.9326   -1.5056 H   0  0  0  0  0  0  0  0  0  0  0  0
   -3.7053    0.0814    1.0717 H   0  0  0  0  0  0  0  0  0  0  0  0
   -6.4903   -0.9680   -1.4623 H   0  0  0  0  0  0  0  0  0  0  0  0
   -5.6628   -0.3935    2.2506 H   0  0  0  0  0  0  0  0  0  0  0  0
   -5.8894   -2.1356    3.8913 H   0  0  0  0  0  0  0  0  0  0  0  0
   -6.5153   -4.4736    3.1627 H   0  0  0  0  0  0  0  0  0  0  0  0
   -6.8678   -4.8828    0.7221 H   0  0  0  0  0  0  0  0  0  0  0  0
   -6.6174   -3.1138   -0.8741 H   0  0  0  0  0  0  0  0  0  0  0  0
   -4.9895    1.9088    0.3676 H   0  0  0  0  0  0  0  0  0  0  0  0
   -6.1918    3.9303    0.8220 H   0  0  0  0  0  0  0  0  0  0  0  0
   -8.6822    3.9858    0.4965 H   0  0  0  0  0  0  0  0  0  0  0  0
   -9.8438    1.9712   -0.2721 H   0  0  0  0  0  0  0  0  0  0  0  0
   -8.6122   -0.0839   -0.7250 H   0  0  0  0  0  0  0  0  0  0  0  0
  1  2  1  0
  2  3  1  0
  3  4  1  0
  4  5  1  0
  5  6  2  0
  6  7  1  0
  7  8  2  0
  8  9  1  0
  9 10  2  0
  8 11  1  0
  2 12  1  0
 12 13  1  0
 13 14  1  0
 14 15  1  0
 15 16  1  0
 16 17  2  0
 17 18  1  0
 18 19  2  0
 19 20  1  0
 20 21  2  0
 19 22  1  0
 22 23  1  0
 23 24  2  0
 23 25  1  0
 25 26  1  0
 26 27  2  0
 27 28  1  0
 28 29  2  0
 29 30  1  0
 30 31  2  0
 25 32  1  0
 32 33  2  0
 33 34  1  0
 34 35  2  0
 35 36  1  0
 36 37  2  0
 10  5  1  0
 21 16  1  0
 31 26  1  0
 37 32  1  0
  1 38  1  0
  2 39  1  1
  3 40  1  0
  3 41  1  0
  6 42  1  0
  7 43  1  0
  9 44  1  0
 10 45  1  0
 11 46  1  0
 12 47  1  0
 12 48  1  0
 13 49  1  0
 14 50  1  0
 14 51  1  0
 15 52  1  0
 15 53  1  0
 17 54  1  0
 18 55  1  0
 20 56  1  0
 21 57  1  0
 22 58  1  0
 25 59  1  0
 27 60  1  0
 28 61  1  0
 29 62  1  0
 30 63  1  0
 31 64  1  0
 33 65  1  0
 34 66  1  0
 35 67  1  0
 36 68  1  0
 37 69  1  0
M  END
>  <Ligand ID>  (1) 
LIG0002607

>  <Ligand>  (1) 
CHEMBL551831

>  <SMILES>  (1) 
O[C@H](COc1ccc(cc1)O)CNCCc1ccc(cc1)NC(=O)C(c1ccccc1)c1ccccc1

>  <CID>  (1) 
44126931.0

>  <ChEMBL ID>  (1) 
nan

>  <InChiKey>  (1) 
DGOYDQFAEGWOEH-NDEPHWFRSA-N

>  <InChi>  (1) 
InChI=1S/C31H32N2O4/c34-27-15-17-29(18-16-27)37-22-28(35)21-32-20-19-23-11-13-26(14-12-23)33-31(36)30(24-7-3-1-4-8-24)25-9-5-2-6-10-25/h1-18,28,30,32,34-35H,19-22H2,(H,33,36)/t28-/m0/s1

>  <IUPAC Name>  (1) 
N-[4-[2-[[(2S)-2-hydroxy-3-(4-hydroxyphenoxy)propyl]amino]ethyl]phenyl]-2,2-diphenylacetamide

$$$$
