
     RDKit          3D

 58 62  0  0  0  0  0  0  0  0999 V2000
   -1.4537   -4.7264    0.9240 C   0  0  0  0  0  0  0  0  0  0  0  0
   -2.7233   -4.0606    0.9964 O   0  0  0  0  0  0  0  0  0  0  0  0
   -2.7873   -2.6820    0.7490 C   0  0  0  0  0  0  0  0  0  0  0  0
   -1.5939   -2.0089    0.4894 C   0  0  0  0  0  0  0  0  0  0  0  0
   -1.6664   -0.6608    0.2509 C   0  0  0  0  0  0  0  0  0  0  0  0
   -2.8474    0.0507    0.2531 C   0  0  0  0  0  0  0  0  0  0  0  0
   -4.0539   -0.6189    0.5108 C   0  0  0  0  0  0  0  0  0  0  0  0
   -3.9764   -1.9936    0.7564 C   0  0  0  0  0  0  0  0  0  0  0  0
   -5.1300   -2.7452    1.0286 O   0  0  0  0  0  0  0  0  0  0  0  0
   -6.4094   -2.1758    1.0721 C   0  0  0  0  0  0  0  0  0  0  0  0
   -2.8891    1.3863    0.0400 N   0  0  0  0  0  0  0  0  0  0  0  0
   -1.7100    2.0077   -0.1757 C   0  0  0  0  0  0  0  0  0  0  0  0
   -0.5288    1.3377   -0.1820 N   0  0  0  0  0  0  0  0  0  0  0  0
   -0.4805    0.0017    0.0285 C   0  0  0  0  0  0  0  0  0  0  0  0
    0.7875   -0.6310   -0.0155 N   0  0  0  0  0  0  0  0  0  0  0  0
    1.3296   -1.2634   -1.2060 C   0  0  0  0  0  0  0  0  0  0  0  0
    2.7845   -1.5582   -1.0933 C   0  0  0  0  0  0  0  0  0  0  0  0
    3.4833   -0.5855   -0.2855 N   0  0  0  0  0  0  0  0  0  0  0  0
    2.9632   -0.0758    0.9872 C   0  0  0  0  0  0  0  0  0  0  0  0
    1.6145   -0.7112    1.1865 C   0  0  0  0  0  0  0  0  0  0  0  0
    4.7449   -0.0375   -0.6712 C   0  0  0  0  0  0  0  0  0  0  0  0
    4.8606    1.3278   -0.7211 C   0  0  0  0  0  0  0  0  0  0  0  0
    6.0482    1.9335   -1.0637 C   0  0  0  0  0  0  0  0  0  0  0  0
    7.1598    1.1754   -1.3681 C   0  0  0  0  0  0  0  0  0  0  0  0
    7.0513   -0.2195   -1.3193 C   0  0  0  0  0  0  0  0  0  0  0  0
    5.8449   -0.7885   -0.9719 C   0  0  0  0  0  0  0  0  0  0  0  0
    5.6565   -2.5452   -0.8961 Cl  0  0  0  0  0  0  0  0  0  0  0  0
   -1.7653    3.4861   -0.4164 C   0  0  0  0  0  0  0  0  0  0  0  0
   -2.6941    4.2118    0.5259 C   0  0  0  0  0  0  0  0  0  0  0  0
   -3.4960    4.7516   -0.6286 C   0  0  0  0  0  0  0  0  0  0  0  0
   -2.7395    3.8189   -1.5412 C   0  0  0  0  0  0  0  0  0  0  0  0
   -1.5360   -5.8132    0.9367 H   0  0  0  0  0  0  0  0  0  0  0  0
   -0.8637   -4.3030    1.7458 H   0  0  0  0  0  0  0  0  0  0  0  0
   -0.9747   -4.4431   -0.0566 H   0  0  0  0  0  0  0  0  0  0  0  0
   -0.6631   -2.5153    0.4786 H   0  0  0  0  0  0  0  0  0  0  0  0
   -4.9867   -0.1038    0.5136 H   0  0  0  0  0  0  0  0  0  0  0  0
   -6.8639   -2.0602    0.0606 H   0  0  0  0  0  0  0  0  0  0  0  0
   -7.0664   -2.8024    1.6839 H   0  0  0  0  0  0  0  0  0  0  0  0
   -6.4209   -1.1689    1.5330 H   0  0  0  0  0  0  0  0  0  0  0  0
    0.7531   -2.1431   -1.5467 H   0  0  0  0  0  0  0  0  0  0  0  0
    1.2103   -0.4703   -2.0117 H   0  0  0  0  0  0  0  0  0  0  0  0
    3.2299   -1.4413   -2.1258 H   0  0  0  0  0  0  0  0  0  0  0  0
    2.9940   -2.6039   -0.7828 H   0  0  0  0  0  0  0  0  0  0  0  0
    3.6061   -0.3831    1.8397 H   0  0  0  0  0  0  0  0  0  0  0  0
    2.8908    1.0469    0.9233 H   0  0  0  0  0  0  0  0  0  0  0  0
    1.8515   -1.7966    1.4183 H   0  0  0  0  0  0  0  0  0  0  0  0
    1.1280   -0.2179    2.0566 H   0  0  0  0  0  0  0  0  0  0  0  0
    4.0228    2.0054   -0.4946 H   0  0  0  0  0  0  0  0  0  0  0  0
    6.1552    3.0105   -1.1075 H   0  0  0  0  0  0  0  0  0  0  0  0
    8.1041    1.5774   -1.6412 H   0  0  0  0  0  0  0  0  0  0  0  0
    7.8599   -0.8776   -1.5378 H   0  0  0  0  0  0  0  0  0  0  0  0
   -0.7910    3.9717   -0.6060 H   0  0  0  0  0  0  0  0  0  0  0  0
   -2.2198    5.0165    1.1086 H   0  0  0  0  0  0  0  0  0  0  0  0
   -3.2714    3.4627    1.1145 H   0  0  0  0  0  0  0  0  0  0  0  0
   -3.3025    5.8356   -0.8038 H   0  0  0  0  0  0  0  0  0  0  0  0
   -4.5920    4.4953   -0.5700 H   0  0  0  0  0  0  0  0  0  0  0  0
   -2.2741    4.3610   -2.3845 H   0  0  0  0  0  0  0  0  0  0  0  0
   -3.3633    2.9592   -1.8346 H   0  0  0  0  0  0  0  0  0  0  0  0
  1  2  1  0
  2  3  1  0
  3  4  2  0
  4  5  1  0
  5  6  2  0
  6  7  1  0
  7  8  2  0
  8  9  1  0
  9 10  1  0
  6 11  1  0
 11 12  2  0
 12 13  1  0
 13 14  2  0
 14 15  1  0
 15 16  1  0
 16 17  1  0
 17 18  1  0
 18 19  1  0
 19 20  1  0
 18 21  1  0
 21 22  2  0
 22 23  1  0
 23 24  2  0
 24 25  1  0
 25 26  2  0
 26 27  1  0
 12 28  1  0
 28 29  1  0
 29 30  1  0
 30 31  1  0
  8  3  1  0
 20 15  1  0
 26 21  1  0
 31 28  1  0
 14  5  1  0
  1 32  1  0
  1 33  1  0
  1 34  1  0
  4 35  1  0
  7 36  1  0
 10 37  1  0
 10 38  1  0
 10 39  1  0
 16 40  1  0
 16 41  1  0
 17 42  1  0
 17 43  1  0
 19 44  1  0
 19 45  1  0
 20 46  1  0
 20 47  1  0
 22 48  1  0
 23 49  1  0
 24 50  1  0
 25 51  1  0
 28 52  1  0
 29 53  1  0
 29 54  1  0
 30 55  1  0
 30 56  1  0
 31 57  1  0
 31 58  1  0
M  END
>  <Ligand ID>  (1) 
LIG0004753

>  <Ligand>  (1) 
CHEMBL2431234

>  <SMILES>  (1) 
COc1cc2c(cc1OC)nc(nc2N1CCN(CC1)c1ccccc1Cl)C1CCC1

>  <CID>  (1) 
52914819.0

>  <ChEMBL ID>  (1) 
nan

>  <InChiKey>  (1) 
GCVVIGBCICNSIY-UHFFFAOYSA-N

>  <InChi>  (1) 
InChI=1S/C24H27ClN4O2/c1-30-21-14-17-19(15-22(21)31-2)26-23(16-6-5-7-16)27-24(17)29-12-10-28(11-13-29)20-9-4-3-8-18(20)25/h3-4,8-9,14-16H,5-7,10-13H2,1-2H3

>  <IUPAC Name>  (1) 
4-[4-(2-chlorophenyl)piperazin-1-yl]-2-cyclobutyl-6,7-dimethoxyquinazoline

$$$$
