
     RDKit          3D

 84 87  0  0  0  0  0  0  0  0999 V2000
    5.2227   -0.5227    1.6458 C   0  0  0  0  0  0  0  0  0  0  0  0
    4.9565   -1.9277    1.1901 C   0  0  0  0  0  0  0  0  0  0  0  0
    3.5497   -2.3595    1.1125 C   0  0  0  0  0  0  0  0  0  0  0  0
    2.6038   -1.7351    0.2186 C   0  0  0  0  0  0  0  0  0  0  0  0
    1.4236   -2.1845    0.2983 O   0  0  0  0  0  0  0  0  0  0  0  0
    2.7722   -0.6613   -0.7819 C   0  0  0  0  0  0  0  0  0  0  0  0
    1.6059   -0.7322   -1.8040 C   0  0  0  0  0  0  0  0  0  0  0  0
    0.3191   -0.1778   -1.3276 C   0  0  0  0  0  0  0  0  0  0  0  0
    0.5257    1.1435   -0.7654 N   0  0  0  0  0  0  0  0  0  0  0  0
    1.8912    1.6688   -0.9382 C   0  0  0  0  0  0  0  0  0  0  0  0
    2.8679    0.7122   -0.2499 C   0  0  0  0  0  0  0  0  0  0  0  0
   -0.4532    1.9017   -0.0913 C   0  0  0  0  0  0  0  0  0  0  0  0
   -0.0473    3.0603    0.3167 O   0  0  0  0  0  0  0  0  0  0  0  0
   -1.8296    1.5775    0.2083 C   0  0  1  0  0  0  0  0  0  0  0  0
   -2.8245    2.5858   -0.3523 C   0  0  0  0  0  0  0  0  0  0  0  0
   -2.6420    3.9546    0.1440 C   0  0  0  0  0  0  0  0  0  0  0  0
   -3.2490    4.3797    1.3243 C   0  0  0  0  0  0  0  0  0  0  0  0
   -3.1082    5.6594    1.8088 C   0  0  0  0  0  0  0  0  0  0  0  0
   -2.3442    6.5930    1.1315 C   0  0  0  0  0  0  0  0  0  0  0  0
   -1.7319    6.1998   -0.0393 C   0  0  0  0  0  0  0  0  0  0  0  0
   -1.8808    4.9143   -0.5147 C   0  0  0  0  0  0  0  0  0  0  0  0
   -2.1801    7.8925    1.5908 O   0  0  0  0  0  0  0  0  0  0  0  0
   -1.3968    8.8091    0.8740 C   0  0  0  0  0  0  0  0  0  0  0  0
   -2.2981    0.2692   -0.1752 N   0  0  0  0  0  0  0  0  0  0  0  0
   -2.6911   -0.6313    0.8509 C   0  0  0  0  0  0  0  0  0  0  0  0
   -2.6463   -0.3601    2.0771 O   0  0  0  0  0  0  0  0  0  0  0  0
   -3.2118   -2.0245    0.5330 C   0  0  1  0  0  0  0  0  0  0  0  0
   -2.2513   -2.7826   -0.2898 C   0  0  0  0  0  0  0  0  0  0  0  0
   -2.7371   -4.1216   -0.6304 C   0  0  0  0  0  0  0  0  0  0  0  0
   -1.9724   -5.0141   -1.3811 C   0  0  0  0  0  0  0  0  0  0  0  0
   -2.6711   -6.1500   -1.5235 N   0  0  0  0  0  0  0  0  0  0  0  0
   -3.8458   -6.0271   -0.9001 C   0  0  0  0  0  0  0  0  0  0  0  0
   -3.8633   -4.7804   -0.3627 N   0  0  0  0  0  0  0  0  0  0  0  0
   -3.5048   -2.6096    1.8365 N   0  0  0  0  0  0  0  0  0  0  0  0
   -4.7952   -2.7048    2.3911 C   0  0  0  0  0  0  0  0  0  0  0  0
   -5.8248   -2.2757    1.7781 O   0  0  0  0  0  0  0  0  0  0  0  0
   -4.9556   -3.3269    3.7349 C   0  0  0  0  0  0  0  0  0  0  0  0
    3.9326   -1.1014   -1.6395 C   0  0  0  0  0  0  0  0  0  0  0  0
    3.8692   -2.4458   -2.0327 C   0  0  0  0  0  0  0  0  0  0  0  0
    4.8728   -2.9627   -2.8258 C   0  0  0  0  0  0  0  0  0  0  0  0
    5.9193   -2.1297   -3.2111 C   0  0  0  0  0  0  0  0  0  0  0  0
    5.9601   -0.8075   -2.8109 C   0  0  0  0  0  0  0  0  0  0  0  0
    4.9539   -0.2892   -2.0159 C   0  0  0  0  0  0  0  0  0  0  0  0
    5.5400    0.1110    0.7931 H   0  0  0  0  0  0  0  0  0  0  0  0
    6.0913   -0.4809    2.3646 H   0  0  0  0  0  0  0  0  0  0  0  0
    4.3218   -0.0941    2.0852 H   0  0  0  0  0  0  0  0  0  0  0  0
    5.5315   -2.0612    0.2464 H   0  0  0  0  0  0  0  0  0  0  0  0
    5.5456   -2.5829    1.9188 H   0  0  0  0  0  0  0  0  0  0  0  0
    3.1162   -2.4738    2.1738 H   0  0  0  0  0  0  0  0  0  0  0  0
    3.5933   -3.4694    0.8153 H   0  0  0  0  0  0  0  0  0  0  0  0
    1.9823   -0.2094   -2.7107 H   0  0  0  0  0  0  0  0  0  0  0  0
    1.5003   -1.7981   -2.0828 H   0  0  0  0  0  0  0  0  0  0  0  0
   -0.1803   -0.8574   -0.6301 H   0  0  0  0  0  0  0  0  0  0  0  0
   -0.3319   -0.1096   -2.2476 H   0  0  0  0  0  0  0  0  0  0  0  0
    1.9356    2.6151   -0.3744 H   0  0  0  0  0  0  0  0  0  0  0  0
    2.1121    1.8608   -1.9803 H   0  0  0  0  0  0  0  0  0  0  0  0
    3.8255    1.2288   -0.2811 H   0  0  0  0  0  0  0  0  0  0  0  0
    2.5218    0.7280    0.8203 H   0  0  0  0  0  0  0  0  0  0  0  0
   -1.9142    1.5850    1.3431 H   0  0  0  0  0  0  0  0  0  0  0  0
   -3.8387    2.1729   -0.1054 H   0  0  0  0  0  0  0  0  0  0  0  0
   -2.7799    2.5461   -1.4600 H   0  0  0  0  0  0  0  0  0  0  0  0
   -3.8600    3.6882    1.8964 H   0  0  0  0  0  0  0  0  0  0  0  0
   -3.5772    5.9970    2.7255 H   0  0  0  0  0  0  0  0  0  0  0  0
   -1.1197    6.8895   -0.6143 H   0  0  0  0  0  0  0  0  0  0  0  0
   -1.3745    4.6542   -1.4555 H   0  0  0  0  0  0  0  0  0  0  0  0
   -1.8204    9.0316   -0.1490 H   0  0  0  0  0  0  0  0  0  0  0  0
   -0.3869    8.3992    0.7228 H   0  0  0  0  0  0  0  0  0  0  0  0
   -1.3424    9.7429    1.4802 H   0  0  0  0  0  0  0  0  0  0  0  0
   -2.3853   -0.0761   -1.1523 H   0  0  0  0  0  0  0  0  0  0  0  0
   -4.1438   -1.8316   -0.0243 H   0  0  0  0  0  0  0  0  0  0  0  0
   -1.2437   -2.8286    0.2128 H   0  0  0  0  0  0  0  0  0  0  0  0
   -2.1365   -2.2258   -1.2609 H   0  0  0  0  0  0  0  0  0  0  0  0
   -0.9835   -4.8471   -1.7911 H   0  0  0  0  0  0  0  0  0  0  0  0
   -4.6012   -6.7931   -0.8579 H   0  0  0  0  0  0  0  0  0  0  0  0
   -4.6583   -4.4263    0.1675 H   0  0  0  0  0  0  0  0  0  0  0  0
   -2.6910   -2.9836    2.3940 H   0  0  0  0  0  0  0  0  0  0  0  0
   -5.9624   -3.8145    3.7860 H   0  0  0  0  0  0  0  0  0  0  0  0
   -4.1633   -4.1137    3.8525 H   0  0  0  0  0  0  0  0  0  0  0  0
   -4.8547   -2.5963    4.5539 H   0  0  0  0  0  0  0  0  0  0  0  0
    3.0683   -3.0903   -1.7402 H   0  0  0  0  0  0  0  0  0  0  0  0
    4.8145   -3.9960   -3.1221 H   0  0  0  0  0  0  0  0  0  0  0  0
    6.7266   -2.5204   -3.8408 H   0  0  0  0  0  0  0  0  0  0  0  0
    6.7988   -0.1857   -3.1343 H   0  0  0  0  0  0  0  0  0  0  0  0
    5.0347    0.7405   -1.7395 H   0  0  0  0  0  0  0  0  0  0  0  0
  1  2  1  0
  2  3  1  0
  3  4  1  0
  4  5  2  0
  4  6  1  0
  6  7  1  0
  7  8  1  0
  8  9  1  0
  9 10  1  0
 10 11  1  0
  9 12  1  0
 12 13  2  0
 12 14  1  0
 14 15  1  0
 15 16  1  0
 16 17  2  0
 17 18  1  0
 18 19  2  0
 19 20  1  0
 20 21  2  0
 19 22  1  0
 22 23  1  0
 14 24  1  0
 24 25  1  0
 25 26  2  0
 25 27  1  0
 27 28  1  0
 28 29  1  0
 29 30  2  0
 30 31  1  0
 31 32  2  0
 32 33  1  0
 27 34  1  0
 34 35  1  0
 35 36  2  0
 35 37  1  0
  6 38  1  0
 38 39  2  0
 39 40  1  0
 40 41  2  0
 41 42  1  0
 42 43  2  0
 11  6  1  0
 21 16  1  0
 33 29  1  0
 43 38  1  0
  1 44  1  0
  1 45  1  0
  1 46  1  0
  2 47  1  0
  2 48  1  0
  3 49  1  0
  3 50  1  0
  7 51  1  0
  7 52  1  0
  8 53  1  0
  8 54  1  0
 10 55  1  0
 10 56  1  0
 11 57  1  0
 11 58  1  0
 14 59  1  1
 15 60  1  0
 15 61  1  0
 17 62  1  0
 18 63  1  0
 20 64  1  0
 21 65  1  0
 23 66  1  0
 23 67  1  0
 23 68  1  0
 24 69  1  0
 27 70  1  6
 28 71  1  0
 28 72  1  0
 30 73  1  0
 32 74  1  0
 33 75  1  0
 34 76  1  0
 37 77  1  0
 37 78  1  0
 37 79  1  0
 39 80  1  0
 40 81  1  0
 41 82  1  0
 42 83  1  0
 43 84  1  0
M  END
>  <Ligand ID>  (1) 
LIG0001758

>  <Ligand>  (1) 
CHEMBL275067

>  <SMILES>  (1) 
CCCC(=O)C1(CCN(CC1)C(=O)[C@@H](Cc1ccc(cc1)OC)NC(=O)[C@@H](Cc1cnc[nH]1)NC(=O)C)c1ccccc1

>  <CID>  (1) 
44269189.0

>  <ChEMBL ID>  (1) 
nan

>  <InChiKey>  (1) 
LGKJAWXHTMWMPF-FQLXRVMXSA-N

>  <InChi>  (1) 
InChI=1S/C33H41N5O5/c1-4-8-30(40)33(25-9-6-5-7-10-25)15-17-38(18-16-33)32(42)29(19-24-11-13-27(43-3)14-12-24)37-31(41)28(36-23(2)39)20-26-21-34-22-35-26/h5-7,9-14,21-22,28-29H,4,8,15-20H2,1-3H3,(H,34,35)(H,36,39)(H,37,41)/t28-,29-/m1/s1

>  <IUPAC Name>  (1) 
(2R)-2-acetamido-N-[(2R)-1-(4-butanoyl-4-phenylpiperidin-1-yl)-3-(4-methoxyphenyl)-1-oxopropan-2-yl]-3-(1H-imidazol-5-yl)propanamide

$$$$
