
     RDKit          3D

 47 50  0  0  0  0  0  0  0  0999 V2000
    1.3577    1.2527    2.3804 O   0  0  0  0  0  0  0  0  0  0  0  0
    2.3622    1.0078    1.6708 C   0  0  0  0  0  0  0  0  0  0  0  0
    3.6265    1.2795    2.0398 N   0  0  0  0  0  0  0  0  0  0  0  0
    4.4842    0.9090    1.0826 C   0  0  0  0  0  0  0  0  0  0  0  0
    3.7383    0.3760    0.0536 C   0  0  0  0  0  0  0  0  0  0  0  0
    2.4547    0.4544    0.4500 N   0  0  0  0  0  0  0  0  0  0  0  0
    1.3168    0.0131   -0.3106 C   0  0  0  0  0  0  0  0  0  0  0  0
    0.6949   -1.1970    0.3460 C   0  0  0  0  0  0  0  0  0  0  0  0
   -0.4617   -1.7359   -0.4217 C   0  0  0  0  0  0  0  0  0  0  0  0
   -1.3541   -0.7753   -0.9530 N   0  0  0  0  0  0  0  0  0  0  0  0
   -0.7903    0.4472   -1.4006 C   0  0  0  0  0  0  0  0  0  0  0  0
    0.2196    1.0526   -0.4187 C   0  0  0  0  0  0  0  0  0  0  0  0
   -2.6790   -0.7515   -0.4839 C   0  0  0  0  0  0  0  0  0  0  0  0
   -3.4844    0.3530   -1.1816 C   0  0  0  0  0  0  0  0  0  0  0  0
   -4.9420   -0.0492   -0.9123 C   0  0  0  0  0  0  0  0  0  0  0  0
   -5.1423    0.2252    0.5657 C   0  0  0  0  0  0  0  0  0  0  0  0
   -4.2277   -0.5475    1.4530 C   0  0  0  0  0  0  0  0  0  0  0  0
   -2.7989   -0.6121    1.0186 C   0  0  0  0  0  0  0  0  0  0  0  0
    4.2936   -0.1116   -1.1053 C   0  0  0  0  0  0  0  0  0  0  0  0
    5.6566   -0.0866   -1.2905 C   0  0  0  0  0  0  0  0  0  0  0  0
    6.4259    0.4475   -0.2635 C   0  0  0  0  0  0  0  0  0  0  0  0
    5.8590    0.9373    0.9023 C   0  0  0  0  0  0  0  0  0  0  0  0
    3.9579    1.7206    2.9416 H   0  0  0  0  0  0  0  0  0  0  0  0
    1.5730   -0.2546   -1.3551 H   0  0  0  0  0  0  0  0  0  0  0  0
    0.3920   -0.9453    1.3781 H   0  0  0  0  0  0  0  0  0  0  0  0
    1.4698   -1.9879    0.4263 H   0  0  0  0  0  0  0  0  0  0  0  0
   -1.0284   -2.4336    0.2292 H   0  0  0  0  0  0  0  0  0  0  0  0
   -0.0704   -2.3727   -1.2459 H   0  0  0  0  0  0  0  0  0  0  0  0
   -1.5450    1.2148   -1.5506 H   0  0  0  0  0  0  0  0  0  0  0  0
   -0.2403    0.3056   -2.3525 H   0  0  0  0  0  0  0  0  0  0  0  0
   -0.2005    1.2402    0.5684 H   0  0  0  0  0  0  0  0  0  0  0  0
    0.5883    1.9766   -0.9131 H   0  0  0  0  0  0  0  0  0  0  0  0
   -3.1829   -1.7036   -0.7577 H   0  0  0  0  0  0  0  0  0  0  0  0
   -3.3797    1.3314   -0.6684 H   0  0  0  0  0  0  0  0  0  0  0  0
   -3.2568    0.3514   -2.2470 H   0  0  0  0  0  0  0  0  0  0  0  0
   -5.0982   -1.1290   -1.0909 H   0  0  0  0  0  0  0  0  0  0  0  0
   -5.6298    0.6170   -1.4635 H   0  0  0  0  0  0  0  0  0  0  0  0
   -6.1806   -0.0054    0.8699 H   0  0  0  0  0  0  0  0  0  0  0  0
   -4.9770    1.3317    0.6835 H   0  0  0  0  0  0  0  0  0  0  0  0
   -4.6753   -1.5735    1.5780 H   0  0  0  0  0  0  0  0  0  0  0  0
   -4.2889   -0.0725    2.4591 H   0  0  0  0  0  0  0  0  0  0  0  0
   -2.1941    0.2152    1.4247 H   0  0  0  0  0  0  0  0  0  0  0  0
   -2.3716   -1.5324    1.4685 H   0  0  0  0  0  0  0  0  0  0  0  0
    3.6652   -0.5171   -1.8774 H   0  0  0  0  0  0  0  0  0  0  0  0
    6.0846   -0.4721   -2.2050 H   0  0  0  0  0  0  0  0  0  0  0  0
    7.4985    0.4639   -0.4163 H   0  0  0  0  0  0  0  0  0  0  0  0
    6.4808    1.3425    1.6750 H   0  0  0  0  0  0  0  0  0  0  0  0
  1  2  2  0
  2  3  1  0
  3  4  1  0
  4  5  2  0
  5  6  1  0
  6  7  1  0
  7  8  1  0
  8  9  1  0
  9 10  1  0
 10 11  1  0
 11 12  1  0
 10 13  1  0
 13 14  1  0
 14 15  1  0
 15 16  1  0
 16 17  1  0
 17 18  1  0
  5 19  1  0
 19 20  2  0
 20 21  1  0
 21 22  2  0
  6  2  1  0
 12  7  1  0
 18 13  1  0
 22  4  1  0
  3 23  1  0
  7 24  1  0
  8 25  1  0
  8 26  1  0
  9 27  1  0
  9 28  1  0
 11 29  1  0
 11 30  1  0
 12 31  1  0
 12 32  1  0
 13 33  1  0
 14 34  1  0
 14 35  1  0
 15 36  1  0
 15 37  1  0
 16 38  1  0
 16 39  1  0
 17 40  1  0
 17 41  1  0
 18 42  1  0
 18 43  1  0
 19 44  1  0
 20 45  1  0
 21 46  1  0
 22 47  1  0
M  END
>  <Ligand ID>  (1) 
LIG0000673

>  <Ligand>  (1) 
CHEMBL2146597

>  <SMILES>  (1) 
O=c1[nH]c2c(n1C1CCN(CC1)C1CCCCC1)cccc2

>  <CID>  (1) 
44253016.0

>  <ChEMBL ID>  (1) 
nan

>  <InChiKey>  (1) 
VSWSLQBTTUYKSP-UHFFFAOYSA-N

>  <InChi>  (1) 
InChI=1S/C18H25N3O/c22-18-19-16-8-4-5-9-17(16)21(18)15-10-12-20(13-11-15)14-6-2-1-3-7-14/h4-5,8-9,14-15H,1-3,6-7,10-13H2,(H,19,22)

>  <IUPAC Name>  (1) 
3-(1-cyclohexylpiperidin-4-yl)-1H-benzimidazol-2-one

$$$$
