
     RDKit          3D

 57 59  0  0  0  0  0  0  0  0999 V2000
   -1.9909   -1.0086   -3.4043 C   0  0  0  0  0  0  0  0  0  0  0  0
   -0.8217   -1.2531   -2.5415 C   0  0  0  0  0  0  0  0  0  0  0  0
   -0.3056   -0.2421   -1.6197 C   0  0  0  0  0  0  0  0  0  0  0  0
   -1.1812    0.2608   -0.5656 N   0  0  0  0  0  0  0  0  0  0  0  0
   -2.2330    1.1325   -0.8941 C   0  0  0  0  0  0  0  0  0  0  0  0
   -2.3496    1.4239   -2.1469 O   0  0  0  0  0  0  0  0  0  0  0  0
   -3.2080    1.7682   -0.0533 C   0  0  0  0  0  0  0  0  0  0  0  0
   -4.2485    1.1721    0.6117 C   0  0  0  0  0  0  0  0  0  0  0  0
   -5.1577    1.9113    1.3818 C   0  0  0  0  0  0  0  0  0  0  0  0
   -4.9870    3.2690    1.4586 C   0  0  0  0  0  0  0  0  0  0  0  0
   -3.9345    3.8783    0.7840 C   0  0  0  0  0  0  0  0  0  0  0  0
   -3.0847    3.1338    0.0597 N   0  0  0  0  0  0  0  0  0  0  0  0
   -0.9071   -0.2431    0.7663 C   0  0  0  0  0  0  0  0  0  0  0  0
   -1.5946   -1.5495    1.0492 C   0  0  0  0  0  0  0  0  0  0  0  0
   -2.7303   -1.8570    1.7068 C   0  0  0  0  0  0  0  0  0  0  0  0
   -2.9285   -3.2439    1.6771 C   0  0  0  0  0  0  0  0  0  0  0  0
   -1.8264   -3.6916    0.9592 C   0  0  0  0  0  0  0  0  0  0  0  0
   -1.0871   -2.6791    0.6193 O   0  0  0  0  0  0  0  0  0  0  0  0
    1.0272   -0.6834   -1.0945 C   0  0  0  0  0  0  0  0  0  0  0  0
    1.4749   -1.8510   -1.3693 O   0  0  0  0  0  0  0  0  0  0  0  0
    1.8328    0.1942   -0.2772 N   0  0  0  0  0  0  0  0  0  0  0  0
    3.1093   -0.2078    0.2450 C   0  0  0  0  0  0  0  0  0  0  0  0
    3.0843   -0.3281    1.7583 C   0  0  0  0  0  0  0  0  0  0  0  0
    4.4281    0.0689    2.2807 C   0  0  0  0  0  0  0  0  0  0  0  0
    5.5628   -0.3723    1.3864 C   0  0  0  0  0  0  0  0  0  0  0  0
    5.4909    0.2440    0.0150 C   0  0  0  0  0  0  0  0  0  0  0  0
    4.1080    0.8636   -0.1138 C   0  0  0  0  0  0  0  0  0  0  0  0
    0.0867    0.9919   -2.5056 C   0  0  0  0  0  0  0  0  0  0  0  0
   -2.0432   -1.9408   -4.0886 H   0  0  0  0  0  0  0  0  0  0  0  0
   -2.9610   -1.0602   -2.8870 H   0  0  0  0  0  0  0  0  0  0  0  0
   -1.9016   -0.2030   -4.1581 H   0  0  0  0  0  0  0  0  0  0  0  0
    0.0587   -1.4778   -3.2551 H   0  0  0  0  0  0  0  0  0  0  0  0
   -0.9633   -2.2699   -2.0693 H   0  0  0  0  0  0  0  0  0  0  0  0
   -4.3855    0.1152    0.5263 H   0  0  0  0  0  0  0  0  0  0  0  0
   -5.9666    1.3815    1.8922 H   0  0  0  0  0  0  0  0  0  0  0  0
   -5.6809    3.8827    2.0494 H   0  0  0  0  0  0  0  0  0  0  0  0
   -3.7599    4.9495    0.8099 H   0  0  0  0  0  0  0  0  0  0  0  0
   -1.2759    0.4853    1.5486 H   0  0  0  0  0  0  0  0  0  0  0  0
    0.1339   -0.4157    1.0195 H   0  0  0  0  0  0  0  0  0  0  0  0
   -3.3782   -1.1612    2.1926 H   0  0  0  0  0  0  0  0  0  0  0  0
   -3.7049   -3.8357    2.0862 H   0  0  0  0  0  0  0  0  0  0  0  0
   -1.5537   -4.7192    0.6821 H   0  0  0  0  0  0  0  0  0  0  0  0
    1.5047    1.1640   -0.0484 H   0  0  0  0  0  0  0  0  0  0  0  0
    3.3416   -1.2027   -0.1448 H   0  0  0  0  0  0  0  0  0  0  0  0
    2.8536   -1.3837    2.0484 H   0  0  0  0  0  0  0  0  0  0  0  0
    2.3277    0.3356    2.1849 H   0  0  0  0  0  0  0  0  0  0  0  0
    4.5238    1.1419    2.4790 H   0  0  0  0  0  0  0  0  0  0  0  0
    4.6084   -0.4567    3.2654 H   0  0  0  0  0  0  0  0  0  0  0  0
    6.4953    0.0324    1.8614 H   0  0  0  0  0  0  0  0  0  0  0  0
    5.6991   -1.4701    1.3637 H   0  0  0  0  0  0  0  0  0  0  0  0
    6.3113    0.9390   -0.1925 H   0  0  0  0  0  0  0  0  0  0  0  0
    5.5451   -0.5745   -0.7294 H   0  0  0  0  0  0  0  0  0  0  0  0
    3.9684    1.7035    0.6024 H   0  0  0  0  0  0  0  0  0  0  0  0
    3.8990    1.1951   -1.1724 H   0  0  0  0  0  0  0  0  0  0  0  0
   -0.5000    1.0263   -3.4175 H   0  0  0  0  0  0  0  0  0  0  0  0
    1.1555    0.8436   -2.7687 H   0  0  0  0  0  0  0  0  0  0  0  0
    0.0205    1.8739   -1.8534 H   0  0  0  0  0  0  0  0  0  0  0  0
  1  2  1  0
  2  3  1  0
  3  4  1  0
  4  5  1  0
  5  6  2  0
  5  7  1  0
  7  8  2  0
  8  9  1  0
  9 10  2  0
 10 11  1  0
 11 12  2  0
  4 13  1  0
 13 14  1  0
 14 15  2  0
 15 16  1  0
 16 17  2  0
 17 18  1  0
  3 19  1  0
 19 20  2  0
 19 21  1  0
 21 22  1  0
 22 23  1  0
 23 24  1  0
 24 25  1  0
 25 26  1  0
 26 27  1  0
  3 28  1  0
 12  7  1  0
 18 14  1  0
 27 22  1  0
  1 29  1  0
  1 30  1  0
  1 31  1  0
  2 32  1  0
  2 33  1  0
  8 34  1  0
  9 35  1  0
 10 36  1  0
 11 37  1  0
 13 38  1  0
 13 39  1  0
 15 40  1  0
 16 41  1  0
 17 42  1  0
 21 43  1  0
 22 44  1  0
 23 45  1  0
 23 46  1  0
 24 47  1  0
 24 48  1  0
 25 49  1  0
 25 50  1  0
 26 51  1  0
 26 52  1  0
 27 53  1  0
 27 54  1  0
 28 55  1  0
 28 56  1  0
 28 57  1  0
M  END
>  <Ligand ID>  (1) 
LIG0004047

>  <Ligand>  (1) 
MLS000519739

>  <SMILES>  (1) 
CCC(N(C(=O)c1ccccn1)Cc1ccco1)(C(=O)NC1CCCCC1)C

>  <CID>  (1) 
3964693.0

>  <ChEMBL ID>  (1) 
nan

>  <InChiKey>  (1) 
GGASVRVMOZGIMT-UHFFFAOYSA-N

>  <InChi>  (1) 
InChI=1S/C22H29N3O3/c1-3-22(2,21(27)24-17-10-5-4-6-11-17)25(16-18-12-9-15-28-18)20(26)19-13-7-8-14-23-19/h7-9,12-15,17H,3-6,10-11,16H2,1-2H3,(H,24,27)

>  <IUPAC Name>  (1) 
N-[1-(cyclohexylamino)-2-methyl-1-oxobutan-2-yl]-N-(furan-2-ylmethyl)pyridine-2-carboxamide

$$$$
