
     RDKit          3D

 28 28  0  0  0  0  0  0  0  0999 V2000
   -3.4246   -0.8460    1.4186 C   0  0  0  0  0  0  0  0  0  0  0  0
   -3.2807    0.3215    0.6199 O   0  0  0  0  0  0  0  0  0  0  0  0
   -2.1520    0.5274   -0.1614 C   0  0  0  0  0  0  0  0  0  0  0  0
   -1.1304   -0.4001   -0.1864 C   0  0  0  0  0  0  0  0  0  0  0  0
    0.0154   -0.2057   -0.9706 C   0  0  0  0  0  0  0  0  0  0  0  0
    1.0405   -1.2380   -0.9590 C   0  0  0  0  0  0  0  0  0  0  0  0
    2.0491   -1.1994    0.1232 C   0  0  0  0  0  0  0  0  0  0  0  0
    2.8846    0.0106    0.2010 C   0  0  0  0  0  0  0  0  0  0  0  0
    2.8368    0.9702   -0.5310 O   0  0  0  0  0  0  0  0  0  0  0  0
    3.9052    0.0653    1.3022 C   0  0  0  0  0  0  0  0  0  0  0  0
    0.0400    0.9603   -1.6999 C   0  0  0  0  0  0  0  0  0  0  0  0
   -0.9816    1.8932   -1.6780 C   0  0  0  0  0  0  0  0  0  0  0  0
   -2.1061    1.6894   -0.8999 C   0  0  0  0  0  0  0  0  0  0  0  0
   -3.0895    2.6447   -0.9138 O   0  0  0  0  0  0  0  0  0  0  0  0
   -2.6917   -0.7733    2.2487 H   0  0  0  0  0  0  0  0  0  0  0  0
   -4.4265   -0.9143    1.8393 H   0  0  0  0  0  0  0  0  0  0  0  0
   -3.1486   -1.7591    0.8180 H   0  0  0  0  0  0  0  0  0  0  0  0
   -1.2005   -1.3084    0.4107 H   0  0  0  0  0  0  0  0  0  0  0  0
    0.4981   -2.2276   -0.8755 H   0  0  0  0  0  0  0  0  0  0  0  0
    1.5852   -1.3332   -1.9298 H   0  0  0  0  0  0  0  0  0  0  0  0
    1.5679   -1.4235    1.1124 H   0  0  0  0  0  0  0  0  0  0  0  0
    2.7761   -2.0429   -0.0983 H   0  0  0  0  0  0  0  0  0  0  0  0
    3.7891   -0.7733    2.0183 H   0  0  0  0  0  0  0  0  0  0  0  0
    3.7756    1.0012    1.8990 H   0  0  0  0  0  0  0  0  0  0  0  0
    4.9387   -0.0040    0.8983 H   0  0  0  0  0  0  0  0  0  0  0  0
    0.8766    1.1839   -2.3398 H   0  0  0  0  0  0  0  0  0  0  0  0
   -0.9192    2.8105   -2.2761 H   0  0  0  0  0  0  0  0  0  0  0  0
   -4.0278    2.3708   -1.2131 H   0  0  0  0  0  0  0  0  0  0  0  0
  1  2  1  0
  2  3  1  0
  3  4  2  0
  4  5  1  0
  5  6  1  0
  6  7  1  0
  7  8  1  0
  8  9  2  0
  8 10  1  0
  5 11  2  0
 11 12  1  0
 12 13  2  0
 13 14  1  0
 13  3  1  0
  1 15  1  0
  1 16  1  0
  1 17  1  0
  4 18  1  0
  6 19  1  0
  6 20  1  0
  7 21  1  0
  7 22  1  0
 10 23  1  0
 10 24  1  0
 10 25  1  0
 11 26  1  0
 12 27  1  0
 14 28  1  0
M  END
>  <Ligand ID>  (1) 
LIG0005040

>  <Ligand>  (1) 
Zingerone

>  <SMILES>  (1) 
COc1cc(CCC(=O)C)ccc1O

>  <CID>  (1) 
31211.0

>  <ChEMBL ID>  (1) 
nan

>  <InChiKey>  (1) 
OJYLAHXKWMRDGS-UHFFFAOYSA-N

>  <InChi>  (1) 
InChI=1S/C11H14O3/c1-8(12)3-4-9-5-6-10(13)11(7-9)14-2/h5-7,13H,3-4H2,1-2H3

>  <IUPAC Name>  (1) 
4-(4-hydroxy-3-methoxyphenyl)butan-2-one

$$$$
