
     RDKit          3D

 31 32  0  0  0  0  0  0  0  0999 V2000
    0.2318   -0.8532   -0.0379 O   0  0  0  0  0  0  0  0  0  0  0  0
    0.3217    0.3308   -0.4911 C   0  0  0  0  0  0  0  0  0  0  0  0
   -0.8660    1.1409   -0.8545 C   0  0  0  0  0  0  0  0  0  0  0  0
   -2.0608    0.3587   -0.6036 N   0  0  0  0  0  0  0  0  0  0  0  0
   -2.6120    0.4493    0.5928 N   0  0  0  0  0  0  0  0  0  0  0  0
   -3.7113   -0.2042    0.9819 C   0  0  0  0  0  0  0  0  0  0  0  0
   -4.2075    0.0065    2.3681 C   0  0  0  0  0  0  0  0  0  0  0  0
   -4.3244   -1.0380    0.0756 C   0  0  0  0  0  0  0  0  0  0  0  0
   -3.7817   -1.1626   -1.1872 C   0  0  0  0  0  0  0  0  0  0  0  0
   -2.6303   -0.4433   -1.5115 C   0  0  0  0  0  0  0  0  0  0  0  0
   -2.1013   -0.5278   -2.6538 O   0  0  0  0  0  0  0  0  0  0  0  0
    1.6010    0.9269   -0.6666 N   0  0  0  0  0  0  0  0  0  0  0  0
    2.8137    0.2249   -0.3439 C   0  0  0  0  0  0  0  0  0  0  0  0
    3.4570   -0.5533   -1.3085 C   0  0  0  0  0  0  0  0  0  0  0  0
    4.6336   -1.2272   -0.9752 C   0  0  0  0  0  0  0  0  0  0  0  0
    5.1464   -1.1102    0.3196 C   0  0  0  0  0  0  0  0  0  0  0  0
    4.4787   -0.3236    1.2617 C   0  0  0  0  0  0  0  0  0  0  0  0
    3.3140    0.3469    0.9413 C   0  0  0  0  0  0  0  0  0  0  0  0
    6.9123   -2.1164    0.8344 I   0  0  0  0  0  0  0  0  0  0  0  0
   -0.9528    2.0859   -0.2708 H   0  0  0  0  0  0  0  0  0  0  0  0
   -0.8038    1.4719   -1.9158 H   0  0  0  0  0  0  0  0  0  0  0  0
   -4.5310    1.0796    2.4250 H   0  0  0  0  0  0  0  0  0  0  0  0
   -3.3827   -0.1656    3.0657 H   0  0  0  0  0  0  0  0  0  0  0  0
   -5.0751   -0.6424    2.5986 H   0  0  0  0  0  0  0  0  0  0  0  0
   -5.2206   -1.5722    0.3894 H   0  0  0  0  0  0  0  0  0  0  0  0
   -4.2508   -1.8078   -1.8978 H   0  0  0  0  0  0  0  0  0  0  0  0
    1.7330    1.8977   -1.0357 H   0  0  0  0  0  0  0  0  0  0  0  0
    3.0413   -0.6361   -2.3243 H   0  0  0  0  0  0  0  0  0  0  0  0
    5.1476   -1.8380   -1.7152 H   0  0  0  0  0  0  0  0  0  0  0  0
    4.8979   -0.2483    2.2630 H   0  0  0  0  0  0  0  0  0  0  0  0
    2.7819    0.9681    1.6763 H   0  0  0  0  0  0  0  0  0  0  0  0
  1  2  2  0
  2  3  1  0
  3  4  1  0
  4  5  1  0
  5  6  2  0
  6  7  1  0
  6  8  1  0
  8  9  2  0
  9 10  1  0
 10 11  2  0
  2 12  1  0
 12 13  1  0
 13 14  2  0
 14 15  1  0
 15 16  2  0
 16 17  1  0
 17 18  2  0
 16 19  1  0
 10  4  1  0
 18 13  1  0
  3 20  1  0
  3 21  1  0
  7 22  1  0
  7 23  1  0
  7 24  1  0
  8 25  1  0
  9 26  1  0
 12 27  1  0
 14 28  1  0
 15 29  1  0
 17 30  1  0
 18 31  1  0
M  END
>  <Ligand ID>  (1) 
LIG0003960

>  <Ligand>  (1) 
CHEMBL2391445

>  <SMILES>  (1) 
O=C(Cn1nc(C)ccc1=O)Nc1ccc(cc1)I

>  <CID>  (1) 
71699141.0

>  <ChEMBL ID>  (1) 
nan

>  <InChiKey>  (1) 
NYESQGZOTNMZAB-UHFFFAOYSA-N

>  <InChi>  (1) 
InChI=1S/C13H12IN3O2/c1-9-2-7-13(19)17(16-9)8-12(18)15-11-5-3-10(14)4-6-11/h2-7H,8H2,1H3,(H,15,18)

>  <IUPAC Name>  (1) 
N-(4-iodophenyl)-2-(3-methyl-6-oxopyridazin-1-yl)acetamide

$$$$
