
     RDKit          3D

 83 91  0  0  0  0  0  0  0  0999 V2000
    0.0210    5.2038   -2.9402 O   0  0  0  0  0  0  0  0  0  0  0  0
    0.8955    4.1661   -2.7102 C   0  0  0  0  0  0  0  0  0  0  0  0
    2.0757    3.9933   -3.4435 C   0  0  0  0  0  0  0  0  0  0  0  0
    2.9521    2.9298   -3.1943 C   0  0  0  0  0  0  0  0  0  0  0  0
    2.6464    2.0169   -2.1894 C   0  0  0  0  0  0  0  0  0  0  0  0
    1.4819    2.2560   -1.5195 C   0  0  0  0  0  0  0  0  0  0  0  0
    0.5981    3.2511   -1.7107 C   0  0  0  0  0  0  0  0  0  0  0  0
   -0.4303    3.0500   -0.7876 O   0  0  0  0  0  0  0  0  0  0  0  0
   -0.2875    1.8351   -0.1004 C   0  0  2  0  0  0  0  0  0  0  0  0
    1.1221    1.3490   -0.4045 C   0  0  2  0  0  0  0  0  0  0  0  0
    2.0529    1.5561    0.7258 C   0  0  0  0  0  0  0  0  0  0  0  0
    3.0255    0.4642    1.0428 C   0  0  0  0  0  0  0  0  0  0  0  0
    3.1149   -0.5690    0.1185 N   0  0  0  0  0  0  0  0  0  0  0  0
    2.6332   -0.2990   -1.2060 C   0  0  2  0  0  0  0  0  0  0  0  0
    3.4322    0.8306   -1.8542 C   0  0  0  0  0  0  0  0  0  0  0  0
    1.1718   -0.0037   -1.0785 C   0  0  2  0  0  0  0  0  0  0  0  0
    0.4468    0.0889   -2.3833 C   0  0  0  0  0  0  0  0  0  0  0  0
   -0.9382    0.6099   -2.0682 C   0  0  0  0  0  0  0  0  0  0  0  0
   -1.1803    0.7286   -0.5926 C   0  0  2  0  0  0  0  0  0  0  0  0
   -2.5211    0.9889   -0.3920 O   0  0  0  0  0  0  0  0  0  0  0  0
   -2.8850    0.6369    0.8994 C   0  0  0  0  0  0  0  0  0  0  0  0
   -2.8802   -0.7034    1.1702 O   0  0  0  0  0  0  0  0  0  0  0  0
   -1.9499   -1.4391    0.3837 C   0  0  2  0  0  0  0  0  0  0  0  0
   -0.8032   -0.5046    0.1936 C   0  0  1  0  0  0  0  0  0  0  0  0
    0.4679   -1.0683   -0.3096 C   0  0  0  0  0  0  0  0  0  0  0  0
   -2.6816   -1.8107   -0.8783 C   0  0  0  0  0  0  0  0  0  0  0  0
   -1.6664   -2.6801    1.1619 C   0  0  0  0  0  0  0  0  0  0  0  0
   -3.0442   -3.3545    1.3248 C   0  0  0  0  0  0  0  0  0  0  0  0
   -0.8375   -3.7196    0.4412 C   0  0  0  0  0  0  0  0  0  0  0  0
   -1.0996   -2.4966    2.5164 C   0  0  0  0  0  0  0  0  0  0  0  0
   -4.2674    1.1783    1.1817 C   0  0  0  0  0  0  0  0  0  0  0  0
   -5.2327    0.4117    1.7935 C   0  0  0  0  0  0  0  0  0  0  0  0
   -6.4652    1.0189    1.9947 C   0  0  0  0  0  0  0  0  0  0  0  0
   -6.6933    2.3322    1.5927 C   0  0  0  0  0  0  0  0  0  0  0  0
   -5.7158    3.0780    0.9846 C   0  0  0  0  0  0  0  0  0  0  0  0
   -4.4887    2.4819    0.7812 C   0  0  0  0  0  0  0  0  0  0  0  0
    3.7065   -1.7981    0.3905 C   0  0  0  0  0  0  0  0  0  0  0  0
    5.1829   -1.8411    0.6026 C   0  0  0  0  0  0  0  0  0  0  0  0
    5.8012   -1.0544    1.7480 C   0  0  0  0  0  0  0  0  0  0  0  0
    5.7055   -2.5772    1.7859 C   0  0  0  0  0  0  0  0  0  0  0  0
   -0.1946    5.4175   -3.9060 H   0  0  0  0  0  0  0  0  0  0  0  0
    2.3183    4.7142   -4.2362 H   0  0  0  0  0  0  0  0  0  0  0  0
    3.8591    2.7829   -3.7468 H   0  0  0  0  0  0  0  0  0  0  0  0
   -0.4191    2.0342    0.9851 H   0  0  0  0  0  0  0  0  0  0  0  0
    1.4002    1.7286    1.6370 H   0  0  0  0  0  0  0  0  0  0  0  0
    2.5863    2.5381    0.6393 H   0  0  0  0  0  0  0  0  0  0  0  0
    2.8919    0.1216    2.0872 H   0  0  0  0  0  0  0  0  0  0  0  0
    4.0454    0.9608    1.0817 H   0  0  0  0  0  0  0  0  0  0  0  0
    2.7680   -1.1932   -1.8195 H   0  0  0  0  0  0  0  0  0  0  0  0
    4.2444    1.1756   -1.1619 H   0  0  0  0  0  0  0  0  0  0  0  0
    3.9588    0.4709   -2.7686 H   0  0  0  0  0  0  0  0  0  0  0  0
    0.2893   -0.9795   -2.7236 H   0  0  0  0  0  0  0  0  0  0  0  0
    0.9378    0.6136   -3.1918 H   0  0  0  0  0  0  0  0  0  0  0  0
   -1.7272    0.0369   -2.5962 H   0  0  0  0  0  0  0  0  0  0  0  0
   -1.0111    1.6291   -2.4994 H   0  0  0  0  0  0  0  0  0  0  0  0
   -2.2385    1.1824    1.6383 H   0  0  0  0  0  0  0  0  0  0  0  0
   -0.5751   -0.1201    1.2393 H   0  0  0  0  0  0  0  0  0  0  0  0
    1.1317   -1.4861    0.4718 H   0  0  0  0  0  0  0  0  0  0  0  0
    0.2218   -1.9222   -0.9962 H   0  0  0  0  0  0  0  0  0  0  0  0
   -1.9954   -2.1480   -1.6830 H   0  0  0  0  0  0  0  0  0  0  0  0
   -3.3794   -1.0105   -1.2319 H   0  0  0  0  0  0  0  0  0  0  0  0
   -3.3541   -2.6651   -0.6570 H   0  0  0  0  0  0  0  0  0  0  0  0
   -3.1167   -3.8012    2.3607 H   0  0  0  0  0  0  0  0  0  0  0  0
   -3.8668   -2.6171    1.2971 H   0  0  0  0  0  0  0  0  0  0  0  0
   -3.1919   -4.1918    0.6471 H   0  0  0  0  0  0  0  0  0  0  0  0
    0.2373   -3.6680    0.6314 H   0  0  0  0  0  0  0  0  0  0  0  0
   -1.1165   -3.8545   -0.6224 H   0  0  0  0  0  0  0  0  0  0  0  0
   -1.1337   -4.7155    0.9042 H   0  0  0  0  0  0  0  0  0  0  0  0
   -1.6520   -3.0541    3.3082 H   0  0  0  0  0  0  0  0  0  0  0  0
   -0.0457   -2.8816    2.6120 H   0  0  0  0  0  0  0  0  0  0  0  0
   -1.0575   -1.4583    2.8808 H   0  0  0  0  0  0  0  0  0  0  0  0
   -5.0189   -0.5988    2.0903 H   0  0  0  0  0  0  0  0  0  0  0  0
   -7.2281    0.4326    2.4706 H   0  0  0  0  0  0  0  0  0  0  0  0
   -7.6820    2.7681    1.7721 H   0  0  0  0  0  0  0  0  0  0  0  0
   -5.8595    4.0982    0.6601 H   0  0  0  0  0  0  0  0  0  0  0  0
   -3.7054    3.0814    0.2925 H   0  0  0  0  0  0  0  0  0  0  0  0
    3.2433   -2.1913    1.3529 H   0  0  0  0  0  0  0  0  0  0  0  0
    3.3888   -2.5759   -0.3551 H   0  0  0  0  0  0  0  0  0  0  0  0
    5.8631   -1.9041   -0.2817 H   0  0  0  0  0  0  0  0  0  0  0  0
    5.1472   -0.5680    2.4953 H   0  0  0  0  0  0  0  0  0  0  0  0
    6.7983   -0.5893    1.6029 H   0  0  0  0  0  0  0  0  0  0  0  0
    6.7218   -3.0689    1.7377 H   0  0  0  0  0  0  0  0  0  0  0  0
    5.0503   -3.0603    2.5113 H   0  0  0  0  0  0  0  0  0  0  0  0
  1  2  1  0
  2  3  2  0
  3  4  1  0
  4  5  2  0
  5  6  1  0
  6  7  2  0
  7  8  1  0
  8  9  1  0
  9 10  1  0
 10 11  1  1
 11 12  1  0
 12 13  1  0
 13 14  1  0
 14 15  1  0
 14 16  1  0
 16 17  1  6
 17 18  1  0
 18 19  1  0
 19 20  1  6
 20 21  1  0
 21 22  1  0
 22 23  1  0
 23 24  1  0
 24 25  1  0
 23 26  1  6
 23 27  1  0
 27 28  1  0
 27 29  1  0
 27 30  1  0
 21 31  1  0
 31 32  2  0
 32 33  1  0
 33 34  2  0
 34 35  1  0
 35 36  2  0
 13 37  1  0
 37 38  1  0
 38 39  1  0
 39 40  1  0
  7  2  1  0
 19  9  1  0
 36 31  1  0
 40 38  1  0
 15  5  1  0
 25 16  1  0
 10  6  1  0
 24 19  1  0
 16 10  1  0
  1 41  1  0
  3 42  1  0
  4 43  1  0
  9 44  1  1
 11 45  1  0
 11 46  1  0
 12 47  1  0
 12 48  1  0
 14 49  1  6
 15 50  1  0
 15 51  1  0
 17 52  1  0
 17 53  1  0
 18 54  1  0
 18 55  1  0
 21 56  1  0
 24 57  1  1
 25 58  1  0
 25 59  1  0
 26 60  1  0
 26 61  1  0
 26 62  1  0
 28 63  1  0
 28 64  1  0
 28 65  1  0
 29 66  1  0
 29 67  1  0
 29 68  1  0
 30 69  1  0
 30 70  1  0
 30 71  1  0
 32 72  1  0
 33 73  1  0
 34 74  1  0
 35 75  1  0
 36 76  1  0
 37 77  1  0
 37 78  1  0
 38 79  1  0
 39 80  1  0
 39 81  1  0
 40 82  1  0
 40 83  1  0
M  END
>  <Ligand ID>  (1) 
LIG0005110

>  <Ligand>  (1) 
SCHEMBL15485891

>  <SMILES>  (1) 
Oc1ccc2c3c1O[C@@H]1[C@@]43CCN([C@H](C2)[C@@]24CC[C@@]31OC(O[C@]([C@H]3C2)(C)C(C)(C)C)c1ccccc1)CC1CC1

>  <CID>  (1) 
86711661.0

>  <ChEMBL ID>  (1) 
nan

>  <InChiKey>  (1) 
HGBJMGMRNYTIHF-CODBXGTISA-N

>  <InChi>  (1) 
InChI=1S/C35H43NO4/c1-31(2,3)32(4)25-19-33-14-15-35(25,40-29(39-32)22-8-6-5-7-9-22)30-34(33)16-17-36(20-21-10-11-21)26(33)18-23-12-13-24(37)28(38-30)27(23)34/h5-9,12-13,21,25-26,29-30,37H,10-11,14-20H2,1-4H3/t25-,26-,29?,30-,32+,33-,34+,35-/m1/s1

>  <IUPAC Name>  (1) 
(1S,2S,6R,14R,15R,19S,20R)-19-tert-butyl-5-(cyclopropylmethyl)-19-methyl-17-phenyl-13,16,18-trioxa-5-azaheptacyclo[13.6.2.12,8.01,6.02,14.015,20.012,24]tetracosa-8(24),9,11-trien-11-ol

$$$$
