
     RDKit          3D

143145  0  0  0  0  0  0  0  0999 V2000
   -9.7033   -3.1630   -0.0320 C   0  0  0  0  0  0  0  0  0  0  0  0
   -8.4178   -2.8514    0.7173 C   0  0  0  0  0  0  0  0  0  0  0  0
   -7.8384   -1.5835    0.1387 C   0  0  1  0  0  0  0  0  0  0  0  0
   -6.5587   -1.1319    0.7709 C   0  0  2  0  0  0  0  0  0  0  0  0
   -6.1071    0.0815    0.0992 N   0  0  0  0  0  0  0  0  0  0  0  0
   -6.2981    1.3319    0.7109 C   0  0  0  0  0  0  0  0  0  0  0  0
   -6.9269    1.2471    1.8321 O   0  0  0  0  0  0  0  0  0  0  0  0
   -5.9173    2.6788    0.3086 C   0  0  1  0  0  0  0  0  0  0  0  0
   -5.1824    2.7060   -0.9429 N   0  0  0  0  0  0  0  0  0  0  0  0
   -3.8304    2.3371   -0.9102 C   0  0  0  0  0  0  0  0  0  0  0  0
   -3.4738    1.8524    0.2286 O   0  0  0  0  0  0  0  0  0  0  0  0
   -2.7749    2.3938   -1.9281 C   0  0  0  0  0  0  0  0  0  0  0  0
   -1.8673    1.1903   -1.5942 C   0  0  0  0  0  0  0  0  0  0  0  0
   -0.2938    1.1519   -2.4220 S   0  0  0  0  0  0  0  0  0  0  0  0
    0.7559    2.4242   -1.6868 C   0  0  0  0  0  0  0  0  0  0  0  0
    1.1664    2.1323   -0.2686 C   0  0  0  0  0  0  0  0  0  0  0  0
    2.1315    0.9921   -0.1655 C   0  0  2  0  0  0  0  0  0  0  0  0
    1.6326   -0.2893   -0.5764 N   0  0  0  0  0  0  0  0  0  0  0  0
    0.7051   -1.1470    0.0896 C   0  0  0  0  0  0  0  0  0  0  0  0
    0.1502   -0.6869    1.0668 O   0  0  0  0  0  0  0  0  0  0  0  0
    0.5294   -2.5113   -0.5201 C   0  0  1  0  0  0  0  0  0  0  0  0
   -0.7197   -3.1801   -0.2637 N   0  0  0  0  0  0  0  0  0  0  0  0
   -1.9555   -2.5075    0.0117 C   0  0  0  0  0  0  0  0  0  0  0  0
   -1.9071   -1.3107    0.1723 O   0  0  0  0  0  0  0  0  0  0  0  0
   -3.2929   -3.1640    0.1010 C   0  0  1  0  0  0  0  0  0  0  0  0
   -4.3209   -2.1758    0.0976 N   0  0  0  0  0  0  0  0  0  0  0  0
   -5.5610   -2.2231    0.8140 C   0  0  0  0  0  0  0  0  0  0  0  0
   -5.7315   -3.2552    1.4693 O   0  0  0  0  0  0  0  0  0  0  0  0
   -3.3608   -4.1768   -1.0092 C   0  0  0  0  0  0  0  0  0  0  0  0
   -4.7142   -4.8592   -1.0716 C   0  0  0  0  0  0  0  0  0  0  0  0
   -4.7689   -5.8652   -2.1539 C   0  0  0  0  0  0  0  0  0  0  0  0
   -4.1297   -6.9591   -2.1304 O   0  0  0  0  0  0  0  0  0  0  0  0
   -5.6324   -5.5374   -3.2825 N   0  0  0  0  0  0  0  0  0  0  0  0
    1.0000   -2.5378   -1.9259 C   0  0  0  0  0  0  0  0  0  0  0  0
    0.8863   -3.8970   -2.5745 C   0  0  0  0  0  0  0  0  0  0  0  0
    0.5197   -4.9243   -1.9805 O   0  0  0  0  0  0  0  0  0  0  0  0
    1.2579   -3.9158   -3.9716 N   0  0  0  0  0  0  0  0  0  0  0  0
    2.7609    0.8169    1.1600 C   0  0  0  0  0  0  0  0  0  0  0  0
    2.4290   -0.1920    1.9117 O   0  0  0  0  0  0  0  0  0  0  0  0
    3.7406    1.6422    1.7521 N   0  0  0  0  0  0  0  0  0  0  0  0
    4.1431    1.2808    3.1150 C   0  0  0  0  0  0  0  0  0  0  0  0
    4.3263   -0.1338    3.4164 C   0  0  0  0  0  0  0  0  0  0  0  0
    5.0120   -1.0402    2.5825 C   0  0  0  0  0  0  0  0  0  0  0  0
    5.2040   -2.3746    3.0331 C   0  0  0  0  0  0  0  0  0  0  0  0
    4.7428   -2.7931    4.2458 C   0  0  0  0  0  0  0  0  0  0  0  0
    4.0765   -1.8743    5.0337 C   0  0  0  0  0  0  0  0  0  0  0  0
    3.8515   -0.5746    4.6674 C   0  0  0  0  0  0  0  0  0  0  0  0
    3.5964   -2.2699    6.4067 C   0  0  0  0  0  0  0  0  0  0  0  0
    4.3881    2.8003    1.2255 C   0  0  0  0  0  0  0  0  0  0  0  0
    5.6241    2.7222    0.4963 C   0  0  0  0  0  0  0  0  0  0  0  0
    6.1558    3.8814    0.1879 O   0  0  0  0  0  0  0  0  0  0  0  0
    6.3793    1.6299    0.0522 N   0  0  0  0  0  0  0  0  0  0  0  0
    7.6607    1.9324   -0.6011 C   0  0  2  0  0  0  0  0  0  0  0  0
    7.4023    2.0457   -2.1031 C   0  0  0  0  0  0  0  0  0  0  0  0
    8.3199    2.4093   -2.8897 O   0  0  0  0  0  0  0  0  0  0  0  0
    6.1021    1.7274   -2.5891 N   0  0  0  0  0  0  0  0  0  0  0  0
    5.7446    1.8110   -3.9881 C   0  0  0  0  0  0  0  0  0  0  0  0
    6.6731    0.9070   -4.7353 C   0  0  0  0  0  0  0  0  0  0  0  0
    6.4471    0.8973   -6.0063 O   0  0  0  0  0  0  0  0  0  0  0  0
    7.6980    0.1165   -4.2137 N   0  0  0  0  0  0  0  0  0  0  0  0
    8.5604    0.7367   -0.4046 C   0  0  0  0  0  0  0  0  0  0  0  0
    8.8115    0.3628    1.0098 C   0  0  0  0  0  0  0  0  0  0  0  0
    9.4642    1.3783    1.8778 C   0  0  0  0  0  0  0  0  0  0  0  0
    9.6432   -0.9216    1.0351 C   0  0  0  0  0  0  0  0  0  0  0  0
   -7.0083    3.7209    0.3879 C   0  0  0  0  0  0  0  0  0  0  0  0
   -6.4551    5.0288   -0.0399 C   0  0  0  0  0  0  0  0  0  0  0  0
   -6.5517    5.5761   -1.2876 C   0  0  0  0  0  0  0  0  0  0  0  0
   -5.9983    6.7711   -1.6417 C   0  0  0  0  0  0  0  0  0  0  0  0
   -5.2949    7.4647   -0.6651 C   0  0  0  0  0  0  0  0  0  0  0  0
   -5.1508    6.9777    0.6279 C   0  0  0  0  0  0  0  0  0  0  0  0
   -5.7508    5.7321    0.9246 C   0  0  0  0  0  0  0  0  0  0  0  0
   -7.7073   -1.7861   -1.3539 C   0  0  0  0  0  0  0  0  0  0  0  0
  -10.2861   -3.9583    0.4726 H   0  0  0  0  0  0  0  0  0  0  0  0
   -9.4694   -3.5708   -1.0509 H   0  0  0  0  0  0  0  0  0  0  0  0
  -10.3268   -2.2854   -0.2288 H   0  0  0  0  0  0  0  0  0  0  0  0
   -8.6814   -2.7388    1.7620 H   0  0  0  0  0  0  0  0  0  0  0  0
   -7.7464   -3.7145    0.4809 H   0  0  0  0  0  0  0  0  0  0  0  0
   -8.6543   -0.8125    0.2879 H   0  0  0  0  0  0  0  0  0  0  0  0
   -6.8481   -0.9170    1.8516 H   0  0  0  0  0  0  0  0  0  0  0  0
   -5.6464    0.0664   -0.7961 H   0  0  0  0  0  0  0  0  0  0  0  0
   -5.1700    3.0033    1.1355 H   0  0  0  0  0  0  0  0  0  0  0  0
   -5.5620    2.9705   -1.8526 H   0  0  0  0  0  0  0  0  0  0  0  0
   -2.1501    3.3003   -1.7269 H   0  0  0  0  0  0  0  0  0  0  0  0
   -3.0830    2.3806   -2.9657 H   0  0  0  0  0  0  0  0  0  0  0  0
   -2.4644    0.2850   -1.9180 H   0  0  0  0  0  0  0  0  0  0  0  0
   -1.7300    1.1738   -0.4782 H   0  0  0  0  0  0  0  0  0  0  0  0
    0.2246    3.4008   -1.7769 H   0  0  0  0  0  0  0  0  0  0  0  0
    1.6590    2.4887   -2.3593 H   0  0  0  0  0  0  0  0  0  0  0  0
    1.4719    3.0688    0.1782 H   0  0  0  0  0  0  0  0  0  0  0  0
    0.2239    1.7891    0.2619 H   0  0  0  0  0  0  0  0  0  0  0  0
    3.0057    1.2731   -0.8601 H   0  0  0  0  0  0  0  0  0  0  0  0
    1.9710   -0.6375   -1.4888 H   0  0  0  0  0  0  0  0  0  0  0  0
    1.2870   -3.1812    0.0528 H   0  0  0  0  0  0  0  0  0  0  0  0
   -0.7958   -4.2041   -0.2282 H   0  0  0  0  0  0  0  0  0  0  0  0
   -3.3631   -3.7480    1.0268 H   0  0  0  0  0  0  0  0  0  0  0  0
   -4.2119   -1.3303   -0.4709 H   0  0  0  0  0  0  0  0  0  0  0  0
   -3.0050   -3.8109   -1.9950 H   0  0  0  0  0  0  0  0  0  0  0  0
   -2.6519   -4.9879   -0.7350 H   0  0  0  0  0  0  0  0  0  0  0  0
   -4.8544   -5.3899   -0.1055 H   0  0  0  0  0  0  0  0  0  0  0  0
   -5.5405   -4.1240   -1.1314 H   0  0  0  0  0  0  0  0  0  0  0  0
   -5.1805   -4.7831   -3.9023 H   0  0  0  0  0  0  0  0  0  0  0  0
   -6.5430   -5.9642   -3.4671 H   0  0  0  0  0  0  0  0  0  0  0  0
    2.1484   -2.4482   -1.8800 H   0  0  0  0  0  0  0  0  0  0  0  0
    0.7047   -1.7348   -2.5936 H   0  0  0  0  0  0  0  0  0  0  0  0
    1.9066   -4.6541   -4.3316 H   0  0  0  0  0  0  0  0  0  0  0  0
    0.8448   -3.1605   -4.6042 H   0  0  0  0  0  0  0  0  0  0  0  0
    3.4195    1.7195    3.8500 H   0  0  0  0  0  0  0  0  0  0  0  0
    5.0944    1.8036    3.3364 H   0  0  0  0  0  0  0  0  0  0  0  0
    5.3715   -0.7462    1.6478 H   0  0  0  0  0  0  0  0  0  0  0  0
    5.7443   -3.0116    2.3286 H   0  0  0  0  0  0  0  0  0  0  0  0
    4.8803   -3.8014    4.6109 H   0  0  0  0  0  0  0  0  0  0  0  0
    3.3105    0.1098    5.3346 H   0  0  0  0  0  0  0  0  0  0  0  0
    4.4662   -2.1733    7.0985 H   0  0  0  0  0  0  0  0  0  0  0  0
    2.7985   -1.5987    6.7127 H   0  0  0  0  0  0  0  0  0  0  0  0
    3.3027   -3.3377    6.3355 H   0  0  0  0  0  0  0  0  0  0  0  0
    3.6500    3.4075    0.6124 H   0  0  0  0  0  0  0  0  0  0  0  0
    4.5550    3.5123    2.1085 H   0  0  0  0  0  0  0  0  0  0  0  0
    6.0491    0.6639    0.1544 H   0  0  0  0  0  0  0  0  0  0  0  0
    8.0289    2.8930   -0.2823 H   0  0  0  0  0  0  0  0  0  0  0  0
    5.3415    1.4134   -1.9059 H   0  0  0  0  0  0  0  0  0  0  0  0
    5.7863    2.8426   -4.3727 H   0  0  0  0  0  0  0  0  0  0  0  0
    4.7196    1.3995   -4.1263 H   0  0  0  0  0  0  0  0  0  0  0  0
    7.3998   -0.6458   -3.5312 H   0  0  0  0  0  0  0  0  0  0  0  0
    8.7170    0.1769   -4.4093 H   0  0  0  0  0  0  0  0  0  0  0  0
    9.5473    0.8861   -0.9242 H   0  0  0  0  0  0  0  0  0  0  0  0
    8.1261   -0.1538   -0.9482 H   0  0  0  0  0  0  0  0  0  0  0  0
    7.8015    0.1069    1.4765 H   0  0  0  0  0  0  0  0  0  0  0  0
   10.2930    0.8839    2.4676 H   0  0  0  0  0  0  0  0  0  0  0  0
    9.9368    2.2101    1.3295 H   0  0  0  0  0  0  0  0  0  0  0  0
    8.7762    1.7677    2.6828 H   0  0  0  0  0  0  0  0  0  0  0  0
    9.0791   -1.7880    0.6734 H   0  0  0  0  0  0  0  0  0  0  0  0
    9.9711   -1.0469    2.1017 H   0  0  0  0  0  0  0  0  0  0  0  0
   10.5575   -0.7222    0.4482 H   0  0  0  0  0  0  0  0  0  0  0  0
   -7.5261    3.7624    1.3393 H   0  0  0  0  0  0  0  0  0  0  0  0
   -7.7555    3.4211   -0.4059 H   0  0  0  0  0  0  0  0  0  0  0  0
   -7.1101    5.0101   -2.0327 H   0  0  0  0  0  0  0  0  0  0  0  0
   -6.0867    7.1931   -2.6273 H   0  0  0  0  0  0  0  0  0  0  0  0
   -4.8175    8.4081   -0.8743 H   0  0  0  0  0  0  0  0  0  0  0  0
   -4.6152    7.4934    1.3966 H   0  0  0  0  0  0  0  0  0  0  0  0
   -5.6502    5.3355    1.9292 H   0  0  0  0  0  0  0  0  0  0  0  0
   -6.9424   -1.1248   -1.7878 H   0  0  0  0  0  0  0  0  0  0  0  0
   -8.6880   -1.5038   -1.8414 H   0  0  0  0  0  0  0  0  0  0  0  0
   -7.5057   -2.8853   -1.5702 H   0  0  0  0  0  0  0  0  0  0  0  0
  1  2  1  0
  2  3  1  0
  3  4  1  0
  4  5  1  0
  5  6  1  0
  6  7  2  0
  6  8  1  0
  8  9  1  0
  9 10  1  0
 10 11  2  0
 10 12  1  0
 12 13  1  0
 13 14  1  0
 14 15  1  0
 15 16  1  0
 16 17  1  0
 17 18  1  0
 18 19  1  0
 19 20  2  0
 19 21  1  0
 21 22  1  0
 22 23  1  0
 23 24  2  0
 23 25  1  0
 25 26  1  0
 26 27  1  0
 27 28  2  0
 25 29  1  0
 29 30  1  0
 30 31  1  0
 31 32  2  0
 31 33  1  0
 21 34  1  0
 34 35  1  0
 35 36  2  0
 35 37  1  0
 17 38  1  0
 38 39  2  0
 38 40  1  0
 40 41  1  0
 41 42  1  0
 42 43  2  0
 43 44  1  0
 44 45  2  0
 45 46  1  0
 46 47  2  0
 46 48  1  0
 40 49  1  0
 49 50  1  0
 50 51  2  0
 50 52  1  0
 52 53  1  0
 53 54  1  0
 54 55  2  0
 54 56  1  0
 56 57  1  0
 57 58  1  0
 58 59  2  0
 58 60  1  0
 53 61  1  0
 61 62  1  0
 62 63  1  0
 62 64  1  0
  8 65  1  0
 65 66  1  0
 66 67  2  0
 67 68  1  0
 68 69  2  0
 69 70  1  0
 70 71  2  0
  3 72  1  0
 27  4  1  0
 47 42  1  0
 71 66  1  0
  1 73  1  0
  1 74  1  0
  1 75  1  0
  2 76  1  0
  2 77  1  0
  3 78  1  6
  4 79  1  1
  5 80  1  0
  8 81  1  1
  9 82  1  0
 12 83  1  0
 12 84  1  0
 13 85  1  0
 13 86  1  0
 15 87  1  0
 15 88  1  0
 16 89  1  0
 16 90  1  0
 17 91  1  6
 18 92  1  0
 21 93  1  1
 22 94  1  0
 25 95  1  1
 26 96  1  0
 29 97  1  0
 29 98  1  0
 30 99  1  0
 30100  1  0
 33101  1  0
 33102  1  0
 34103  1  0
 34104  1  0
 37105  1  0
 37106  1  0
 41107  1  0
 41108  1  0
 43109  1  0
 44110  1  0
 45111  1  0
 47112  1  0
 48113  1  0
 48114  1  0
 48115  1  0
 49116  1  0
 49117  1  0
 52118  1  0
 53119  1  1
 56120  1  0
 57121  1  0
 57122  1  0
 60123  1  0
 60124  1  0
 61125  1  0
 61126  1  0
 62127  1  0
 63128  1  0
 63129  1  0
 63130  1  0
 64131  1  0
 64132  1  0
 64133  1  0
 65134  1  0
 65135  1  0
 67136  1  0
 68137  1  0
 69138  1  0
 70139  1  0
 71140  1  0
 72141  1  0
 72142  1  0
 72143  1  0
M  END
>  <Ligand ID>  (1) 
LIG0001562

>  <Ligand>  (1) 
CHEMBL3354593

>  <SMILES>  (1) 
CC[C@@H]([C@@H]1NC(=O)[C@@H](NC(=O)CCSCC[C@H](NC(=O)[C@@H](NC(=O)[C@@H](NC1=O)CCC(=O)N)CC(=O)N)C(=O)N(Cc1cccc(c1)C)CC(=O)N[C@H](C(=O)NCC(=O)N)CC(C)C)Cc1ccccc1)C

>  <CID>  (1) 
118720283.0

>  <ChEMBL ID>  (1) 
nan

>  <InChiKey>  (1) 
PYJRSYQAUCRCNH-YKEMCRMISA-N

>  <InChi>  (1) 
InChI=1S/C49H71N11O11S/c1-6-30(5)43-48(70)56-33(15-16-38(50)61)45(67)58-37(24-39(51)62)46(68)57-34(17-19-72-20-18-41(64)54-36(47(69)59-43)23-31-12-8-7-9-13-31)49(71)60(26-32-14-10-11-29(4)22-32)27-42(65)55-35(21-28(2)3)44(66)53-25-40(52)63/h7-14,22,28,30,33-37,43H,6,15-21,23-27H2,1-5H3,(H2,50,61)(H2,51,62)(H2,52,63)(H,53,66)(H,54,64)(H,55,65)(H,56,70)(H,57,68)(H,58,67)(H,59,69)/t30-,33-,34-,35-,36-,37-,43-/m0/s1

>  <IUPAC Name>  (1) 
(4S,7S,10S,13S,16S)-7-(2-amino-2-oxoethyl)-N-[2-[[(2S)-1-[(2-amino-2-oxoethyl)amino]-4-methyl-1-oxopentan-2-yl]amino]-2-oxoethyl]-10-(3-amino-3-oxopropyl)-16-benzyl-13-[(2S)-butan-2-yl]-N-[(3-methylphenyl)methyl]-6,9,12,15,18-pentaoxo-1-thia-5,8,11,14,17-pentazacycloicosane-4-carboxamide

$$$$
