
     RDKit          3D

 67 72  0  0  0  0  0  0  0  0999 V2000
  -11.8113   -0.1863    1.2477 C   0  0  0  0  0  0  0  0  0  0  0  0
  -10.9497    0.0075    0.1808 O   0  0  0  0  0  0  0  0  0  0  0  0
   -9.6411   -0.3524    0.4785 C   0  0  0  0  0  0  0  0  0  0  0  0
   -9.0325    0.4121    1.6092 C   0  0  0  0  0  0  0  0  0  0  0  0
   -7.7360    0.1095    1.9506 O   0  0  0  0  0  0  0  0  0  0  0  0
   -6.5551    0.1950    1.2907 C   0  0  0  0  0  0  0  0  0  0  0  0
   -5.4119   -0.2379    1.9810 C   0  0  0  0  0  0  0  0  0  0  0  0
   -4.1685   -0.1883    1.3950 C   0  0  0  0  0  0  0  0  0  0  0  0
   -3.9644    0.2843    0.1061 C   0  0  0  0  0  0  0  0  0  0  0  0
   -5.0858    0.7103   -0.5739 C   0  0  0  0  0  0  0  0  0  0  0  0
   -6.3387    0.6590    0.0206 C   0  0  0  0  0  0  0  0  0  0  0  0
   -2.6648    0.3181   -0.4526 N   0  0  0  0  0  0  0  0  0  0  0  0
   -2.3706    0.7476   -1.8018 C   0  0  0  0  0  0  0  0  0  0  0  0
   -1.3203   -0.1936   -2.3587 C   0  0  0  0  0  0  0  0  0  0  0  0
   -0.0745   -0.1182   -1.5933 N   0  0  0  0  0  0  0  0  0  0  0  0
   -0.2034    0.2888   -0.2105 C   0  0  0  0  0  0  0  0  0  0  0  0
   -1.5458   -0.0978    0.3682 C   0  0  0  0  0  0  0  0  0  0  0  0
    1.1583   -0.4298   -2.1872 C   0  0  0  0  0  0  0  0  0  0  0  0
    1.2220   -0.8743   -3.4889 C   0  0  0  0  0  0  0  0  0  0  0  0
    2.4348   -1.1904   -4.1091 C   0  0  0  0  0  0  0  0  0  0  0  0
    3.5861   -1.0372   -3.3535 C   0  0  0  0  0  0  0  0  0  0  0  0
    3.5707   -0.5954   -2.0473 C   0  0  0  0  0  0  0  0  0  0  0  0
    2.3448   -0.3017   -1.4968 C   0  0  0  0  0  0  0  0  0  0  0  0
    4.8341   -0.4737   -1.3571 C   0  0  0  0  0  0  0  0  0  0  0  0
    5.9571   -0.7951   -2.0172 N   0  0  0  0  0  0  0  0  0  0  0  0
    7.1934   -0.7169   -1.4649 C   0  0  0  0  0  0  0  0  0  0  0  0
    8.3441   -1.0741   -2.2234 N   0  0  0  0  0  0  0  0  0  0  0  0
    7.2911   -0.2951   -0.1906 N   0  0  0  0  0  0  0  0  0  0  0  0
    6.2131    0.0470    0.5424 C   0  0  0  0  0  0  0  0  0  0  0  0
    4.9738   -0.0461   -0.0549 C   0  0  0  0  0  0  0  0  0  0  0  0
    6.6677    0.4185    1.7598 N   0  0  0  0  0  0  0  0  0  0  0  0
    8.0055    0.3107    1.7876 C   0  0  0  0  0  0  0  0  0  0  0  0
    8.3776   -0.1379    0.5563 N   0  0  0  0  0  0  0  0  0  0  0  0
    8.9422    0.5944    2.8691 C   0  0  0  0  0  0  0  0  0  0  0  0
   10.0874    1.3641    2.6563 C   0  0  0  0  0  0  0  0  0  0  0  0
   10.7644    1.4535    3.8577 C   0  0  0  0  0  0  0  0  0  0  0  0
    9.9873    0.7244    4.7526 C   0  0  0  0  0  0  0  0  0  0  0  0
    8.9282    0.2416    4.1181 O   0  0  0  0  0  0  0  0  0  0  0  0
  -11.7883   -1.2658    1.5479 H   0  0  0  0  0  0  0  0  0  0  0  0
  -11.5681    0.4962    2.0622 H   0  0  0  0  0  0  0  0  0  0  0  0
  -12.8725    0.0491    0.9519 H   0  0  0  0  0  0  0  0  0  0  0  0
   -9.0454   -0.2898   -0.4435 H   0  0  0  0  0  0  0  0  0  0  0  0
   -9.6398   -1.4697    0.7176 H   0  0  0  0  0  0  0  0  0  0  0  0
   -9.1055    1.5183    1.4465 H   0  0  0  0  0  0  0  0  0  0  0  0
   -9.6634    0.1914    2.5116 H   0  0  0  0  0  0  0  0  0  0  0  0
   -5.5180   -0.6222    3.0077 H   0  0  0  0  0  0  0  0  0  0  0  0
   -3.3378   -0.5491    2.0136 H   0  0  0  0  0  0  0  0  0  0  0  0
   -5.0009    1.0922   -1.5841 H   0  0  0  0  0  0  0  0  0  0  0  0
   -7.1588    1.0221   -0.5727 H   0  0  0  0  0  0  0  0  0  0  0  0
   -3.2285    0.6919   -2.4734 H   0  0  0  0  0  0  0  0  0  0  0  0
   -2.0044    1.7993   -1.8348 H   0  0  0  0  0  0  0  0  0  0  0  0
   -1.7480   -1.2145   -2.3298 H   0  0  0  0  0  0  0  0  0  0  0  0
   -1.1740    0.1338   -3.4235 H   0  0  0  0  0  0  0  0  0  0  0  0
    0.5489   -0.1765    0.4459 H   0  0  0  0  0  0  0  0  0  0  0  0
   -0.1027    1.3852   -0.1632 H   0  0  0  0  0  0  0  0  0  0  0  0
   -1.6487   -1.1772    0.5533 H   0  0  0  0  0  0  0  0  0  0  0  0
   -1.6816    0.4215    1.3408 H   0  0  0  0  0  0  0  0  0  0  0  0
    0.3471   -1.0111   -4.1210 H   0  0  0  0  0  0  0  0  0  0  0  0
    2.4808   -1.5392   -5.1315 H   0  0  0  0  0  0  0  0  0  0  0  0
    4.5175   -1.2930   -3.8686 H   0  0  0  0  0  0  0  0  0  0  0  0
    2.3442    0.0443   -0.4732 H   0  0  0  0  0  0  0  0  0  0  0  0
    9.1756   -1.5584   -1.7981 H   0  0  0  0  0  0  0  0  0  0  0  0
    8.3759   -0.8527   -3.2395 H   0  0  0  0  0  0  0  0  0  0  0  0
    4.1130    0.2198    0.5092 H   0  0  0  0  0  0  0  0  0  0  0  0
   10.4252    1.8261    1.7407 H   0  0  0  0  0  0  0  0  0  0  0  0
   11.6917    1.9806    4.0340 H   0  0  0  0  0  0  0  0  0  0  0  0
   10.2571    0.6030    5.8014 H   0  0  0  0  0  0  0  0  0  0  0  0
  1  2  1  0
  2  3  1  0
  3  4  1  0
  4  5  1  0
  5  6  1  0
  6  7  2  0
  7  8  1  0
  8  9  2  0
  9 10  1  0
 10 11  2  0
  9 12  1  0
 12 13  1  0
 13 14  1  0
 14 15  1  0
 15 16  1  0
 16 17  1  0
 15 18  1  0
 18 19  2  0
 19 20  1  0
 20 21  2  0
 21 22  1  0
 22 23  2  0
 22 24  1  0
 24 25  1  0
 25 26  2  0
 26 27  1  0
 26 28  1  0
 28 29  1  0
 29 30  1  0
 29 31  2  0
 31 32  1  0
 32 33  2  0
 32 34  1  0
 34 35  2  0
 35 36  1  0
 36 37  2  0
 37 38  1  0
 11  6  1  0
 17 12  1  0
 23 18  1  0
 30 24  2  0
 38 34  1  0
 33 28  1  0
  1 39  1  0
  1 40  1  0
  1 41  1  0
  3 42  1  0
  3 43  1  0
  4 44  1  0
  4 45  1  0
  7 46  1  0
  8 47  1  0
 10 48  1  0
 11 49  1  0
 13 50  1  0
 13 51  1  0
 14 52  1  0
 14 53  1  0
 16 54  1  0
 16 55  1  0
 17 56  1  0
 17 57  1  0
 19 58  1  0
 20 59  1  0
 21 60  1  0
 23 61  1  0
 27 62  1  0
 27 63  1  0
 30 64  1  0
 35 65  1  0
 36 66  1  0
 37 67  1  0
M  END
>  <Ligand ID>  (1) 
LIG0000714

>  <Ligand>  (1) 
CHEMBL175961

>  <SMILES>  (1) 
COCCOc1ccc(cc1)N1CCN(CC1)c1cccc(c1)c1nc(N)n2c(c1)nc(n2)c1ccco1

>  <CID>  (1) 
10196061.0

>  <ChEMBL ID>  (1) 
nan

>  <InChiKey>  (1) 
HZAGRYSAEUKSAP-UHFFFAOYSA-N

>  <InChi>  (1) 
InChI=1S/C28H29N7O3/c1-36-16-17-37-23-9-7-21(8-10-23)33-11-13-34(14-12-33)22-5-2-4-20(18-22)24-19-26-31-27(25-6-3-15-38-25)32-35(26)28(29)30-24/h2-10,15,18-19H,11-14,16-17H2,1H3,(H2,29,30)

>  <IUPAC Name>  (1) 
2-(furan-2-yl)-7-[3-[4-[4-(2-methoxyethoxy)phenyl]piperazin-1-yl]phenyl]-[1,2,4]triazolo[1,5-c]pyrimidin-5-amine

$$$$
