
     RDKit          3D

 48 50  0  0  0  0  0  0  0  0999 V2000
   -6.3457    2.3504    0.5860 O   0  0  0  0  0  0  0  0  0  0  0  0
   -5.9027    1.0098    0.4652 C   0  0  0  0  0  0  0  0  0  0  0  0
   -6.1789    0.1467    1.3483 O   0  0  0  0  0  0  0  0  0  0  0  0
   -5.0940    0.5683   -0.7042 C   0  0  0  0  0  0  0  0  0  0  0  0
   -3.8243   -0.0597   -0.2085 C   0  0  0  0  0  0  0  0  0  0  0  0
   -2.9874    0.9125    0.6068 C   0  0  0  0  0  0  0  0  0  0  0  0
   -1.8233    0.1860    1.2140 C   0  0  0  0  0  0  0  0  0  0  0  0
   -0.9992   -0.5497    0.1879 C   0  0  0  0  0  0  0  0  0  0  0  0
   -1.8772   -1.3670   -0.7186 C   0  0  0  0  0  0  0  0  0  0  0  0
   -2.9342   -0.5049   -1.3462 C   0  0  0  0  0  0  0  0  0  0  0  0
   -0.1192    0.3533   -0.6129 C   0  0  0  0  0  0  0  0  0  0  0  0
    1.1339   -0.3601   -1.1095 C   0  0  0  0  0  0  0  0  0  0  0  0
    1.9216   -0.6551    0.0571 N   0  0  0  0  0  0  0  0  0  0  0  0
    1.2346   -0.9858    1.2829 C   0  0  0  0  0  0  0  0  0  0  0  0
   -0.1243   -1.5262    0.9592 C   0  0  0  0  0  0  0  0  0  0  0  0
    3.3357   -0.6051   -0.0689 C   0  0  0  0  0  0  0  0  0  0  0  0
    4.0266   -1.6958   -0.4421 N   0  0  0  0  0  0  0  0  0  0  0  0
    5.3660   -1.6436   -0.5656 C   0  0  0  0  0  0  0  0  0  0  0  0
    6.0923   -0.4880   -0.3204 C   0  0  0  0  0  0  0  0  0  0  0  0
    5.3532    0.6219    0.0620 C   0  0  0  0  0  0  0  0  0  0  0  0
    3.9845    0.5823    0.1918 C   0  0  0  0  0  0  0  0  0  0  0  0
    6.1267    1.8896    0.3308 C   0  0  0  0  0  0  0  0  0  0  0  0
    5.2658    2.7287    1.0316 F   0  0  0  0  0  0  0  0  0  0  0  0
    6.4218    2.4409   -0.8934 F   0  0  0  0  0  0  0  0  0  0  0  0
    7.2697    1.6339    1.0634 F   0  0  0  0  0  0  0  0  0  0  0  0
   -6.4511    2.6654    1.5445 H   0  0  0  0  0  0  0  0  0  0  0  0
   -5.6310   -0.1888   -1.3059 H   0  0  0  0  0  0  0  0  0  0  0  0
   -4.8877    1.4277   -1.3755 H   0  0  0  0  0  0  0  0  0  0  0  0
   -4.0583   -0.9030    0.4672 H   0  0  0  0  0  0  0  0  0  0  0  0
   -3.6217    1.3050    1.4181 H   0  0  0  0  0  0  0  0  0  0  0  0
   -2.6481    1.7570   -0.0218 H   0  0  0  0  0  0  0  0  0  0  0  0
   -2.1575   -0.5105    2.0078 H   0  0  0  0  0  0  0  0  0  0  0  0
   -1.1690    0.9429    1.6939 H   0  0  0  0  0  0  0  0  0  0  0  0
   -1.3078   -1.9642   -1.4130 H   0  0  0  0  0  0  0  0  0  0  0  0
   -2.4350   -2.0842   -0.0511 H   0  0  0  0  0  0  0  0  0  0  0  0
   -2.5305    0.4181   -1.8188 H   0  0  0  0  0  0  0  0  0  0  0  0
   -3.5074   -1.0452   -2.1317 H   0  0  0  0  0  0  0  0  0  0  0  0
    0.2880    1.1745    0.0510 H   0  0  0  0  0  0  0  0  0  0  0  0
   -0.5896    0.8573   -1.4506 H   0  0  0  0  0  0  0  0  0  0  0  0
    1.6597    0.3224   -1.8148 H   0  0  0  0  0  0  0  0  0  0  0  0
    0.9307   -1.2935   -1.6319 H   0  0  0  0  0  0  0  0  0  0  0  0
    1.1709   -0.1590    1.9923 H   0  0  0  0  0  0  0  0  0  0  0  0
    1.8047   -1.8430    1.7306 H   0  0  0  0  0  0  0  0  0  0  0  0
    0.0222   -2.4706    0.3889 H   0  0  0  0  0  0  0  0  0  0  0  0
   -0.6336   -1.8177    1.9169 H   0  0  0  0  0  0  0  0  0  0  0  0
    5.8427   -2.5746   -0.8759 H   0  0  0  0  0  0  0  0  0  0  0  0
    7.1504   -0.4711   -0.4288 H   0  0  0  0  0  0  0  0  0  0  0  0
    3.4369    1.4722    0.4987 H   0  0  0  0  0  0  0  0  0  0  0  0
  1  2  1  0
  2  3  2  0
  2  4  1  0
  4  5  1  0
  5  6  1  0
  6  7  1  0
  7  8  1  0
  8  9  1  0
  9 10  1  0
  8 11  1  0
 11 12  1  0
 12 13  1  0
 13 14  1  0
 14 15  1  0
 13 16  1  0
 16 17  2  0
 17 18  1  0
 18 19  2  0
 19 20  1  0
 20 21  2  0
 20 22  1  0
 22 23  1  0
 22 24  1  0
 22 25  1  0
 10  5  1  0
 21 16  1  0
 15  8  1  0
  1 26  1  0
  4 27  1  0
  4 28  1  0
  5 29  1  0
  6 30  1  0
  6 31  1  0
  7 32  1  0
  7 33  1  0
  9 34  1  0
  9 35  1  0
 10 36  1  0
 10 37  1  0
 11 38  1  0
 11 39  1  0
 12 40  1  0
 12 41  1  0
 14 42  1  0
 14 43  1  0
 15 44  1  0
 15 45  1  0
 18 46  1  0
 19 47  1  0
 21 48  1  0
M  END
>  <Ligand ID>  (1) 
LIG0002984

>  <Ligand>  (1) 
CHEMBL3954140

>  <SMILES>  (1) 
OC(=O)CC1CCC2(CC1)CCN(CC2)c1nccc(c1)C(F)(F)F

>  <CID>  (1) 
73777174.0

>  <ChEMBL ID>  (1) 
nan

>  <InChiKey>  (1) 
GCHINJJAFUYXMP-UHFFFAOYSA-N

>  <InChi>  (1) 
InChI=1S/C18H23F3N2O2/c19-18(20,21)14-3-8-22-15(12-14)23-9-6-17(7-10-23)4-1-13(2-5-17)11-16(24)25/h3,8,12-13H,1-2,4-7,9-11H2,(H,24,25)

>  <IUPAC Name>  (1) 
2-[3-[4-(trifluoromethyl)pyridin-2-yl]-3-azaspiro[5.5]undecan-9-yl]acetic acid

$$$$
