
     RDKit          3D

 35 38  0  0  0  0  0  0  0  0999 V2000
   -6.2039   -2.3311   -1.3533 Cl  0  0  0  0  0  0  0  0  0  0  0  0
   -4.5915   -1.7699   -0.9394 C   0  0  0  0  0  0  0  0  0  0  0  0
   -4.3998   -1.1486    0.2719 C   0  0  0  0  0  0  0  0  0  0  0  0
   -3.1427   -0.6974    0.6233 C   0  0  0  0  0  0  0  0  0  0  0  0
   -2.0715   -0.8764   -0.2582 C   0  0  0  0  0  0  0  0  0  0  0  0
   -2.2650   -1.4944   -1.4619 C   0  0  0  0  0  0  0  0  0  0  0  0
   -3.5366   -1.9534   -1.8226 C   0  0  0  0  0  0  0  0  0  0  0  0
   -0.7653   -0.4201    0.0807 N   0  0  0  0  0  0  0  0  0  0  0  0
    0.4221   -0.5015   -0.6515 N   0  0  0  0  0  0  0  0  0  0  0  0
    1.4475   -0.4720    0.1122 C   0  0  0  0  0  0  0  0  0  0  0  0
    0.9809   -0.3584    1.5414 C   0  0  0  0  0  0  0  0  0  0  0  0
   -0.3828    0.2591    1.3235 C   0  0  0  0  0  0  0  0  0  0  0  0
   -0.2415    1.7207    1.1477 C   0  0  0  0  0  0  0  0  0  0  0  0
    0.4207    2.2909    0.0811 C   0  0  0  0  0  0  0  0  0  0  0  0
    0.3742    3.6753    0.2111 C   0  0  0  0  0  0  0  0  0  0  0  0
   -0.3410    3.8722    1.3943 C   0  0  0  0  0  0  0  0  0  0  0  0
   -0.6741    2.7083    1.8969 O   0  0  0  0  0  0  0  0  0  0  0  0
    2.8768   -0.5325   -0.2449 C   0  0  0  0  0  0  0  0  0  0  0  0
    3.5004   -1.4400   -1.0327 C   0  0  0  0  0  0  0  0  0  0  0  0
    4.8136   -1.3293   -1.2414 C   0  0  0  0  0  0  0  0  0  0  0  0
    5.4548   -0.2731   -0.6244 C   0  0  0  0  0  0  0  0  0  0  0  0
    4.1047    0.6000    0.2981 S   0  0  0  0  0  0  0  0  0  0  0  0
   -5.2253   -1.0048    0.9636 H   0  0  0  0  0  0  0  0  0  0  0  0
   -2.9816   -0.2047    1.5796 H   0  0  0  0  0  0  0  0  0  0  0  0
   -1.4156   -1.6168   -2.1198 H   0  0  0  0  0  0  0  0  0  0  0  0
   -3.6918   -2.4492   -2.7883 H   0  0  0  0  0  0  0  0  0  0  0  0
    0.9101   -1.3972    1.8939 H   0  0  0  0  0  0  0  0  0  0  0  0
    1.6719    0.2671    2.1219 H   0  0  0  0  0  0  0  0  0  0  0  0
   -1.0170    0.0053    2.1738 H   0  0  0  0  0  0  0  0  0  0  0  0
    0.9208    1.8273   -0.7588 H   0  0  0  0  0  0  0  0  0  0  0  0
    0.7973    4.4031   -0.4563 H   0  0  0  0  0  0  0  0  0  0  0  0
   -0.5432    4.8679    1.7651 H   0  0  0  0  0  0  0  0  0  0  0  0
    2.9017   -2.2705   -1.4971 H   0  0  0  0  0  0  0  0  0  0  0  0
    5.4032   -2.0244   -1.8694 H   0  0  0  0  0  0  0  0  0  0  0  0
    6.4895    0.0686   -0.6064 H   0  0  0  0  0  0  0  0  0  0  0  0
  1  2  1  0
  2  3  2  0
  3  4  1  0
  4  5  2  0
  5  6  1  0
  6  7  2  0
  5  8  1  0
  8  9  1  0
  9 10  2  0
 10 11  1  0
 11 12  1  0
 12 13  1  0
 13 14  2  0
 14 15  1  0
 15 16  2  0
 16 17  1  0
 10 18  1  0
 18 19  2  0
 19 20  1  0
 20 21  2  0
 21 22  1  0
  7  2  1  0
 12  8  1  0
 17 13  1  0
 22 18  1  0
  3 23  1  0
  4 24  1  0
  6 25  1  0
  7 26  1  0
 11 27  1  0
 11 28  1  0
 12 29  1  0
 14 30  1  0
 15 31  1  0
 16 32  1  0
 19 33  1  0
 20 34  1  0
 21 35  1  0
M  END
>  <Ligand ID>  (1) 
LIG0002875

>  <Ligand>  (1) 
MLS000566481

>  <SMILES>  (1) 
Clc1ccc(cc1)N1N=C(CC1c1ccco1)c1cccs1

>  <CID>  (1) 
2842931.0

>  <ChEMBL ID>  (1) 
nan

>  <InChiKey>  (1) 
XYCOPXQUSIVJLY-UHFFFAOYSA-N

>  <InChi>  (1) 
InChI=1S/C17H13ClN2OS/c18-12-5-7-13(8-6-12)20-15(16-3-1-9-21-16)11-14(19-20)17-4-2-10-22-17/h1-10,15H,11H2

>  <IUPAC Name>  (1) 
2-(4-chlorophenyl)-3-(furan-2-yl)-5-thiophen-2-yl-3,4-dihydropyrazole

$$$$
