
     RDKit          3D

 72 76  0  0  0  0  0  0  0  0999 V2000
    8.1412   -5.6683   -2.1390 N   0  0  0  0  0  0  0  0  0  0  0  0
    8.0878   -5.0009   -1.1841 C   0  0  0  0  0  0  0  0  0  0  0  0
    8.0102   -4.1670    0.0149 C   0  0  0  0  0  0  0  0  0  0  0  0
    7.1244   -2.9411   -0.2442 C   0  0  0  0  0  0  0  0  0  0  0  0
    7.1103   -2.2237    0.9252 O   0  0  0  0  0  0  0  0  0  0  0  0
    6.3684   -1.0695    0.9127 C   0  0  0  0  0  0  0  0  0  0  0  0
    4.9169   -1.3500    0.6123 C   0  0  0  0  0  0  0  0  0  0  0  0
    4.2555   -0.0810    0.6277 O   0  0  0  0  0  0  0  0  0  0  0  0
    2.8911   -0.0640    0.3760 C   0  0  0  0  0  0  0  0  0  0  0  0
    2.2175    1.0977    0.3772 N   0  0  0  0  0  0  0  0  0  0  0  0
    0.8832    1.1938    0.1397 C   0  0  0  0  0  0  0  0  0  0  0  0
    0.2677    2.4568    0.1628 N   0  0  0  0  0  0  0  0  0  0  0  0
    1.0797    3.6527    0.4437 C   0  0  0  0  0  0  0  0  0  0  0  0
    0.2964    4.8903    0.4335 C   0  0  0  0  0  0  0  0  0  0  0  0
    0.1606    5.5810   -0.7607 C   0  0  0  0  0  0  0  0  0  0  0  0
   -0.5631    6.7529   -0.8408 C   0  0  0  0  0  0  0  0  0  0  0  0
   -1.1535    7.2195    0.3192 C   0  0  0  0  0  0  0  0  0  0  0  0
   -1.0238    6.5394    1.5110 C   0  0  0  0  0  0  0  0  0  0  0  0
   -0.2963    5.3695    1.5713 C   0  0  0  0  0  0  0  0  0  0  0  0
   -1.6878    7.1095    2.7016 C   0  0  0  0  0  0  0  0  0  0  0  0
   -2.9442    6.5303    2.8303 F   0  0  0  0  0  0  0  0  0  0  0  0
   -1.8684    8.4728    2.5844 F   0  0  0  0  0  0  0  0  0  0  0  0
   -0.9135    6.8322    3.8107 F   0  0  0  0  0  0  0  0  0  0  0  0
    0.2323    0.0057   -0.1106 C   0  0  0  0  0  0  0  0  0  0  0  0
    0.8808   -1.2105   -0.1224 C   0  0  0  0  0  0  0  0  0  0  0  0
    2.1985   -1.2027    0.1234 N   0  0  0  0  0  0  0  0  0  0  0  0
    0.2210   -2.3950   -0.3742 C   0  0  0  0  0  0  0  0  0  0  0  0
   -1.1453   -2.3577   -0.6245 C   0  0  0  0  0  0  0  0  0  0  0  0
   -1.8027   -1.1422   -0.6145 C   0  0  0  0  0  0  0  0  0  0  0  0
   -1.1209    0.0315   -0.3597 C   0  0  0  0  0  0  0  0  0  0  0  0
   -3.2859   -1.1475   -0.8916 C   0  0  0  0  0  0  0  0  0  0  0  0
   -3.9920   -1.2639    0.3839 C   0  0  0  0  0  0  0  0  0  0  0  0
   -3.7775   -2.2816    1.2811 C   0  0  0  0  0  0  0  0  0  0  0  0
   -4.4725   -2.3720    2.4762 C   0  0  0  0  0  0  0  0  0  0  0  0
   -5.4291   -1.4156    2.8136 C   0  0  0  0  0  0  0  0  0  0  0  0
   -5.6496   -0.3870    1.9135 C   0  0  0  0  0  0  0  0  0  0  0  0
   -4.9500   -0.3086    0.7254 C   0  0  0  0  0  0  0  0  0  0  0  0
   -6.3220   -1.5065    4.3182 Cl  0  0  0  0  0  0  0  0  0  0  0  0
   -3.5379   -2.2180   -1.8689 C   0  0  0  0  0  0  0  0  0  0  0  0
   -3.1087   -1.9831   -3.1777 C   0  0  0  0  0  0  0  0  0  0  0  0
   -3.3073   -2.9205   -4.1680 C   0  0  0  0  0  0  0  0  0  0  0  0
   -3.9352   -4.1017   -3.8666 C   0  0  0  0  0  0  0  0  0  0  0  0
   -4.3762   -4.3797   -2.5932 C   0  0  0  0  0  0  0  0  0  0  0  0
   -4.1557   -3.4067   -1.6249 C   0  0  0  0  0  0  0  0  0  0  0  0
   -4.1908   -5.2980   -5.1214 Cl  0  0  0  0  0  0  0  0  0  0  0  0
    7.5652   -4.8002    0.8103 H   0  0  0  0  0  0  0  0  0  0  0  0
    9.0433   -3.8398    0.2544 H   0  0  0  0  0  0  0  0  0  0  0  0
    7.6181   -2.3478   -1.0451 H   0  0  0  0  0  0  0  0  0  0  0  0
    6.1308   -3.3377   -0.5650 H   0  0  0  0  0  0  0  0  0  0  0  0
    6.7760   -0.4082    0.1147 H   0  0  0  0  0  0  0  0  0  0  0  0
    6.4618   -0.6063    1.9178 H   0  0  0  0  0  0  0  0  0  0  0  0
    4.5224   -2.0354    1.3959 H   0  0  0  0  0  0  0  0  0  0  0  0
    4.7965   -1.8162   -0.3741 H   0  0  0  0  0  0  0  0  0  0  0  0
   -0.7405    2.6501   -0.0034 H   0  0  0  0  0  0  0  0  0  0  0  0
    1.5356    3.4365    1.4393 H   0  0  0  0  0  0  0  0  0  0  0  0
    1.8969    3.7513   -0.2905 H   0  0  0  0  0  0  0  0  0  0  0  0
    0.6304    5.2015   -1.6634 H   0  0  0  0  0  0  0  0  0  0  0  0
   -0.6612    7.2831   -1.7830 H   0  0  0  0  0  0  0  0  0  0  0  0
   -1.7269    8.1377    0.2816 H   0  0  0  0  0  0  0  0  0  0  0  0
   -0.2147    4.8615    2.5218 H   0  0  0  0  0  0  0  0  0  0  0  0
    0.7462   -3.3587   -0.3812 H   0  0  0  0  0  0  0  0  0  0  0  0
   -1.6170   -3.3011   -0.8154 H   0  0  0  0  0  0  0  0  0  0  0  0
   -1.6943    0.9449   -0.3670 H   0  0  0  0  0  0  0  0  0  0  0  0
   -3.5620   -0.1860   -1.4157 H   0  0  0  0  0  0  0  0  0  0  0  0
   -3.0455   -3.0534    1.0949 H   0  0  0  0  0  0  0  0  0  0  0  0
   -4.2939   -3.1713    3.1644 H   0  0  0  0  0  0  0  0  0  0  0  0
   -6.4001    0.3544    2.1895 H   0  0  0  0  0  0  0  0  0  0  0  0
   -5.1289    0.4995    0.0272 H   0  0  0  0  0  0  0  0  0  0  0  0
   -2.6111   -1.0531   -3.4278 H   0  0  0  0  0  0  0  0  0  0  0  0
   -2.9702   -2.7295   -5.1834 H   0  0  0  0  0  0  0  0  0  0  0  0
   -4.8770   -5.3090   -2.3286 H   0  0  0  0  0  0  0  0  0  0  0  0
   -4.5135   -3.6384   -0.6375 H   0  0  0  0  0  0  0  0  0  0  0  0
  1  2  3  0
  2  3  1  0
  3  4  1  0
  4  5  1  0
  5  6  1  0
  6  7  1  0
  7  8  1  0
  8  9  1  0
  9 10  2  0
 10 11  1  0
 11 12  1  0
 12 13  1  0
 13 14  1  0
 14 15  2  0
 15 16  1  0
 16 17  2  0
 17 18  1  0
 18 19  2  0
 18 20  1  0
 20 21  1  0
 20 22  1  0
 20 23  1  0
 11 24  2  0
 24 25  1  0
 25 26  2  0
 25 27  1  0
 27 28  2  0
 28 29  1  0
 29 30  2  0
 29 31  1  0
 31 32  1  0
 32 33  2  0
 33 34  1  0
 34 35  2  0
 35 36  1  0
 36 37  2  0
 35 38  1  0
 31 39  1  0
 39 40  2  0
 40 41  1  0
 41 42  2  0
 42 43  1  0
 43 44  2  0
 42 45  1  0
 26  9  1  0
 37 32  1  0
 44 39  1  0
 19 14  1  0
 30 24  1  0
  3 46  1  0
  3 47  1  0
  4 48  1  0
  4 49  1  0
  6 50  1  0
  6 51  1  0
  7 52  1  0
  7 53  1  0
 12 54  1  0
 13 55  1  0
 13 56  1  0
 15 57  1  0
 16 58  1  0
 17 59  1  0
 19 60  1  0
 27 61  1  0
 28 62  1  0
 30 63  1  0
 31 64  1  0
 33 65  1  0
 34 66  1  0
 36 67  1  0
 37 68  1  0
 40 69  1  0
 41 70  1  0
 43 71  1  0
 44 72  1  0
M  END
>  <Ligand ID>  (1) 
LIG0005812

>  <Ligand>  (1) 
SCHEMBL17557620

>  <SMILES>  (1) 
N#CCCOCCOc1nc(NCc2cccc(c2)C(F)(F)F)c2c(n1)ccc(c2)C(c1ccc(cc1)Cl)c1ccc(cc1)Cl

>  <CID>  (1) 
118916105.0

>  <ChEMBL ID>  (1) 
nan

>  <InChiKey>  (1) 
PQZQUIKLTABABQ-UHFFFAOYSA-N

>  <InChi>  (1) 
InChI=1S/C34H27Cl2F3N4O2/c35-27-10-5-23(6-11-27)31(24-7-12-28(36)13-8-24)25-9-14-30-29(20-25)32(43-33(42-30)45-18-17-44-16-2-15-40)41-21-22-3-1-4-26(19-22)34(37,38)39/h1,3-14,19-20,31H,2,16-18,21H2,(H,41,42,43)

>  <IUPAC Name>  (1) 
3-[2-[6-[bis(4-chlorophenyl)methyl]-4-[[3-(trifluoromethyl)phenyl]methylamino]quinazolin-2-yl]oxyethoxy]propanenitrile

$$$$
