
     RDKit          3D

 36 38  0  0  0  0  0  0  0  0999 V2000
    6.2368   -0.1330   -0.7425 C   0  0  0  0  0  0  0  0  0  0  0  0
    5.0580   -0.5632   -1.3641 O   0  0  0  0  0  0  0  0  0  0  0  0
    3.8026   -0.2495   -0.8796 C   0  0  0  0  0  0  0  0  0  0  0  0
    3.2199   -1.1229    0.0369 C   0  0  0  0  0  0  0  0  0  0  0  0
    4.2527   -2.8576    0.6405 I   0  0  0  0  0  0  0  0  0  0  0  0
    1.9734   -0.8458    0.5413 C   0  0  0  0  0  0  0  0  0  0  0  0
    1.3027    0.2990    0.1368 C   0  0  0  0  0  0  0  0  0  0  0  0
    1.8806    1.1816   -0.7833 C   0  0  0  0  0  0  0  0  0  0  0  0
    3.1351    0.8752   -1.2721 C   0  0  0  0  0  0  0  0  0  0  0  0
    4.0794    2.1544   -2.6650 I   0  0  0  0  0  0  0  0  0  0  0  0
   -0.0313    0.5898    0.6805 C   0  0  0  0  0  0  0  0  0  0  0  0
   -1.1479   -0.0036   -0.1476 C   0  0  0  0  0  0  0  0  0  0  0  0
   -1.0093   -1.4205   -0.2047 N   0  0  0  0  0  0  0  0  0  0  0  0
   -2.1840   -2.1755   -0.3196 C   0  0  0  0  0  0  0  0  0  0  0  0
   -3.4411   -1.4849   -0.7026 C   0  0  0  0  0  0  0  0  0  0  0  0
   -3.6510   -0.2609    0.1520 C   0  0  0  0  0  0  0  0  0  0  0  0
   -2.4279    0.4453    0.3922 C   0  0  0  0  0  0  0  0  0  0  0  0
   -2.9189    1.8519    1.4247 S   0  0  0  0  0  0  0  0  0  0  0  0
   -4.7412    1.2641    1.3768 C   0  0  0  0  0  0  0  0  0  0  0  0
   -4.6711    0.3185    0.7320 N   0  0  0  0  0  0  0  0  0  0  0  0
   -5.7007    2.0630    2.0919 N   0  0  0  0  0  0  0  0  0  0  0  0
    6.1030    0.6848   -0.0080 H   0  0  0  0  0  0  0  0  0  0  0  0
    6.7170   -0.9805   -0.1957 H   0  0  0  0  0  0  0  0  0  0  0  0
    6.9061    0.2538   -1.5482 H   0  0  0  0  0  0  0  0  0  0  0  0
    1.5245   -1.5257    1.2521 H   0  0  0  0  0  0  0  0  0  0  0  0
    1.3535    2.0656   -1.0904 H   0  0  0  0  0  0  0  0  0  0  0  0
   -0.1074    0.2206    1.7225 H   0  0  0  0  0  0  0  0  0  0  0  0
   -0.1687    1.7057    0.7344 H   0  0  0  0  0  0  0  0  0  0  0  0
   -1.0204    0.3735   -1.1838 H   0  0  0  0  0  0  0  0  0  0  0  0
   -0.1535   -1.7804   -0.6063 H   0  0  0  0  0  0  0  0  0  0  0  0
   -2.0032   -2.9519   -1.1206 H   0  0  0  0  0  0  0  0  0  0  0  0
   -2.3484   -2.7858    0.6010 H   0  0  0  0  0  0  0  0  0  0  0  0
   -3.5004   -1.2033   -1.7736 H   0  0  0  0  0  0  0  0  0  0  0  0
   -4.2720   -2.2124   -0.5277 H   0  0  0  0  0  0  0  0  0  0  0  0
   -6.0454    2.9100    1.5776 H   0  0  0  0  0  0  0  0  0  0  0  0
   -6.0018    1.7865    3.0424 H   0  0  0  0  0  0  0  0  0  0  0  0
  1  2  1  0
  2  3  1  0
  3  4  2  0
  4  5  1  0
  4  6  1  0
  6  7  2  0
  7  8  1  0
  8  9  2  0
  9 10  1  0
  7 11  1  0
 11 12  1  0
 12 13  1  0
 13 14  1  0
 14 15  1  0
 15 16  1  0
 16 17  2  0
 17 18  1  0
 18 19  1  0
 19 20  2  0
 19 21  1  0
  9  3  1  0
 17 12  1  0
 20 16  1  0
  1 22  1  0
  1 23  1  0
  1 24  1  0
  6 25  1  0
  8 26  1  0
 11 27  1  0
 11 28  1  0
 12 29  1  0
 13 30  1  0
 14 31  1  0
 14 32  1  0
 15 33  1  0
 15 34  1  0
 21 35  1  0
 21 36  1  0
M  END
>  <Ligand ID>  (1) 
LIG0004742

>  <Ligand>  (1) 
CHEMBL307647

>  <SMILES>  (1) 
COc1c(I)cc(cc1I)CC1NCCc2c1sc(n2)N

>  <CID>  (1) 
9958539.0

>  <ChEMBL ID>  (1) 
nan

>  <InChiKey>  (1) 
OIXLSYRKUYDFOB-UHFFFAOYSA-N

>  <InChi>  (1) 
InChI=1S/C14H15I2N3OS/c1-20-12-8(15)4-7(5-9(12)16)6-11-13-10(2-3-18-11)19-14(17)21-13/h4-5,11,18H,2-3,6H2,1H3,(H2,17,19)

>  <IUPAC Name>  (1) 
4-[(3,5-diiodo-4-methoxyphenyl)methyl]-4,5,6,7-tetrahydro-[1,3]thiazolo[5,4-c]pyridin-2-amine

$$$$
