
     RDKit          3D

 70 77  0  0  0  0  0  0  0  0999 V2000
    2.7461   -1.5359   -0.0597 O   0  0  0  0  0  0  0  0  0  0  0  0
    2.6424   -1.0941    1.0965 C   0  0  0  0  0  0  0  0  0  0  0  0
    1.7855   -0.0425    1.3784 O   0  0  0  0  0  0  0  0  0  0  0  0
    0.9869    0.6006    0.4416 C   0  0  1  0  0  0  0  0  0  0  0  0
    0.0771   -0.4557   -0.1310 C   0  0  0  0  0  0  0  0  0  0  0  0
   -1.3259   -0.3351    0.2901 C   0  0  0  0  0  0  0  0  0  0  0  0
   -2.2778   -1.0258   -0.4342 C   0  0  0  0  0  0  0  0  0  0  0  0
   -3.6199   -0.9730   -0.1132 C   0  0  0  0  0  0  0  0  0  0  0  0
   -4.0137   -0.2050    0.9648 C   0  0  0  0  0  0  0  0  0  0  0  0
   -3.0871    0.4816    1.6884 N   0  0  0  0  0  0  0  0  0  0  0  0
   -1.7670    0.4195    1.3593 C   0  0  0  0  0  0  0  0  0  0  0  0
   -0.8031    1.1842    2.1785 C   0  0  1  0  0  0  0  0  0  0  0  0
    0.2697    1.6430    1.2295 C   0  0  1  0  0  0  0  0  0  0  0  0
    1.3146    2.4808    1.9085 C   0  0  0  0  0  0  0  0  0  0  0  0
    2.1683    3.1319    0.8896 C   0  0  0  0  0  0  0  0  0  0  0  0
    2.7087    2.2481   -0.1065 N   0  0  0  0  0  0  0  0  0  0  0  0
    1.7227    1.3273   -0.6327 C   0  0  2  0  0  0  0  0  0  0  0  0
    0.8581    2.0946   -1.5658 C   0  0  0  0  0  0  0  0  0  0  0  0
   -0.2806    2.7844   -0.9157 C   0  0  0  0  0  0  0  0  0  0  0  0
   -0.5420    2.5249    0.3793 C   0  0  0  0  0  0  0  0  0  0  0  0
   -1.5621    3.0226    1.1395 C   0  0  0  0  0  0  0  0  0  0  0  0
   -1.4372    2.4735    2.4021 O   0  0  0  0  0  0  0  0  0  0  0  0
   -2.4209    3.9018    0.4873 C   0  0  0  0  0  0  0  0  0  0  0  0
   -2.2026    4.2157   -0.8615 C   0  0  0  0  0  0  0  0  0  0  0  0
   -1.1299    3.6573   -1.5706 C   0  0  0  0  0  0  0  0  0  0  0  0
   -3.4732    4.4403    1.2066 O   0  0  0  0  0  0  0  0  0  0  0  0
    3.2987    3.0432   -1.1433 C   0  0  0  0  0  0  0  0  0  0  0  0
   -4.6227   -1.7061   -0.8829 C   0  0  0  0  0  0  0  0  0  0  0  0
   -4.2479   -2.9208   -1.4630 C   0  0  0  0  0  0  0  0  0  0  0  0
   -5.1673   -3.6564   -2.2055 C   0  0  0  0  0  0  0  0  0  0  0  0
   -6.4425   -3.1868   -2.3671 C   0  0  0  0  0  0  0  0  0  0  0  0
   -6.8340   -1.9793   -1.7969 C   0  0  0  0  0  0  0  0  0  0  0  0
   -5.9130   -1.2475   -1.0560 C   0  0  0  0  0  0  0  0  0  0  0  0
   -7.6130   -4.1079   -3.3035 Cl  0  0  0  0  0  0  0  0  0  0  0  0
    3.4668   -1.7329    2.1567 C   0  0  0  0  0  0  0  0  0  0  0  0
    4.2411   -2.8018    1.4836 C   0  0  0  0  0  0  0  0  0  0  0  0
    3.6581   -4.0598    1.4135 C   0  0  0  0  0  0  0  0  0  0  0  0
    4.2793   -5.1352    0.8129 C   0  0  0  0  0  0  0  0  0  0  0  0
    5.5407   -4.9151    0.2652 C   0  0  0  0  0  0  0  0  0  0  0  0
    6.1427   -3.6604    0.3251 C   0  0  0  0  0  0  0  0  0  0  0  0
    5.4933   -2.6044    0.9339 C   0  0  0  0  0  0  0  0  0  0  0  0
    0.1727   -0.4245   -1.2535 H   0  0  0  0  0  0  0  0  0  0  0  0
    0.4002   -1.4903    0.1135 H   0  0  0  0  0  0  0  0  0  0  0  0
   -2.0021   -1.6304   -1.2763 H   0  0  0  0  0  0  0  0  0  0  0  0
   -5.0662   -0.1537    1.2294 H   0  0  0  0  0  0  0  0  0  0  0  0
   -0.4698    0.7135    3.0919 H   0  0  0  0  0  0  0  0  0  0  0  0
    0.8387    3.2792    2.5168 H   0  0  0  0  0  0  0  0  0  0  0  0
    1.8929    1.7808    2.5685 H   0  0  0  0  0  0  0  0  0  0  0  0
    1.6101    3.9827    0.4483 H   0  0  0  0  0  0  0  0  0  0  0  0
    3.0444    3.5936    1.4180 H   0  0  0  0  0  0  0  0  0  0  0  0
    2.2547    0.5914   -1.2756 H   0  0  0  0  0  0  0  0  0  0  0  0
    1.4233    2.8908   -2.0973 H   0  0  0  0  0  0  0  0  0  0  0  0
    0.4117    1.4815   -2.3767 H   0  0  0  0  0  0  0  0  0  0  0  0
   -2.8817    4.9083   -1.3683 H   0  0  0  0  0  0  0  0  0  0  0  0
   -0.9481    3.8883   -2.6104 H   0  0  0  0  0  0  0  0  0  0  0  0
   -4.3177    4.6789    0.6828 H   0  0  0  0  0  0  0  0  0  0  0  0
    3.4315    2.5402   -2.1053 H   0  0  0  0  0  0  0  0  0  0  0  0
    2.8414    4.0721   -1.2310 H   0  0  0  0  0  0  0  0  0  0  0  0
    4.3476    3.2727   -0.7903 H   0  0  0  0  0  0  0  0  0  0  0  0
   -3.2289   -3.2978   -1.3351 H   0  0  0  0  0  0  0  0  0  0  0  0
   -4.8731   -4.6119   -2.6621 H   0  0  0  0  0  0  0  0  0  0  0  0
   -7.8516   -1.6459   -1.9500 H   0  0  0  0  0  0  0  0  0  0  0  0
   -6.2041   -0.3098   -0.6088 H   0  0  0  0  0  0  0  0  0  0  0  0
    2.7939   -2.1708    2.8961 H   0  0  0  0  0  0  0  0  0  0  0  0
    4.1704   -1.0144    2.6207 H   0  0  0  0  0  0  0  0  0  0  0  0
    2.6754   -4.2331    1.8397 H   0  0  0  0  0  0  0  0  0  0  0  0
    3.8247   -6.1141    0.7589 H   0  0  0  0  0  0  0  0  0  0  0  0
    6.0535   -5.7493   -0.2157 H   0  0  0  0  0  0  0  0  0  0  0  0
    7.1160   -3.4965   -0.0992 H   0  0  0  0  0  0  0  0  0  0  0  0
    5.9228   -1.6252    1.0002 H   0  0  0  0  0  0  0  0  0  0  0  0
  1  2  2  0
  2  3  1  0
  4  3  1  1
  4  5  1  0
  5  6  1  0
  6  7  2  0
  7  8  1  0
  8  9  2  0
  9 10  1  0
 10 11  2  0
 11 12  1  0
 12 13  1  0
 13 14  1  1
 14 15  1  0
 15 16  1  0
 16 17  1  0
 17 18  1  0
 18 19  1  0
 19 20  2  0
 20 21  1  0
 21 22  1  0
 21 23  2  0
 23 24  1  0
 24 25  2  0
 23 26  1  0
 16 27  1  0
  8 28  1  0
 28 29  2  0
 29 30  1  0
 30 31  2  0
 31 32  1  0
 32 33  2  0
 31 34  1  0
  2 35  1  0
 35 36  1  0
 36 37  2  0
 37 38  1  0
 38 39  2  0
 39 40  1  0
 40 41  2  0
 17  4  1  0
 25 19  1  0
 33 28  1  0
 41 36  1  0
 13  4  1  0
 11  6  1  0
 22 12  1  0
 20 13  1  0
  5 42  1  0
  5 43  1  0
  7 44  1  0
  9 45  1  0
 12 46  1  1
 14 47  1  0
 14 48  1  0
 15 49  1  0
 15 50  1  0
 17 51  1  6
 18 52  1  0
 18 53  1  0
 24 54  1  0
 25 55  1  0
 26 56  1  0
 27 57  1  0
 27 58  1  0
 27 59  1  0
 29 60  1  0
 30 61  1  0
 32 62  1  0
 33 63  1  0
 35 64  1  0
 35 65  1  0
 37 66  1  0
 38 67  1  0
 39 68  1  0
 40 69  1  0
 41 70  1  0
M  END
>  <Ligand ID>  (1) 
LIG0004602

>  <Ligand>  (1) 
CHEMBL2179661

>  <SMILES>  (1) 
O=C(O[C@]12Cc3cc(cnc3[C@H]3[C@]42CCN([C@@H]1Cc1c4c(O3)c(cc1)O)C)c1ccc(cc1)Cl)Cc1ccccc1

>  <CID>  (1) 
71460945.0

>  <ChEMBL ID>  (1) 
nan

>  <InChiKey>  (1) 
JUNNRNPPDPOZCZ-WDJKZLNSSA-N

>  <InChi>  (1) 
InChI=1S/C34H29ClN2O4/c1-37-14-13-33-29-22-9-12-26(38)31(29)40-32(33)30-23(16-24(19-36-30)21-7-10-25(35)11-8-21)18-34(33,27(37)17-22)41-28(39)15-20-5-3-2-4-6-20/h2-12,16,19,27,32,38H,13-15,17-18H2,1H3/t27-,32+,33+,34-/m1/s1

>  <IUPAC Name>  (1) 
[(1S,2S,10R,18R)-6-(4-chlorophenyl)-13-hydroxy-19-methyl-11-oxa-8,19-diazahexacyclo[10.9.1.01,10.02,18.04,9.016,22]docosa-4(9),5,7,12,14,16(22)-hexaen-2-yl] 2-phenylacetate

$$$$
