
     RDKit          3D

 30 31  0  0  0  0  0  0  0  0999 V2000
   -0.8988   -2.7897   -0.5401 O   0  0  0  0  0  0  0  0  0  0  0  0
   -2.0044   -2.0919   -0.1989 C   0  0  0  0  0  0  0  0  0  0  0  0
   -3.1166   -2.7466   -0.1964 O   0  0  0  0  0  0  0  0  0  0  0  0
   -2.1293   -0.6669    0.1745 C   0  0  1  0  0  0  0  0  0  0  0  0
   -1.5007    0.2677   -0.7637 C   0  0  2  0  0  0  0  0  0  0  0  0
   -0.1172    0.4173   -1.1340 C   0  0  1  0  0  0  0  0  0  0  0  0
   -0.8500    1.5365   -0.3741 C   0  0  2  0  0  0  0  0  0  0  0  0
   -0.5080    1.8635    1.0058 C   0  0  0  0  0  0  0  0  0  0  0  0
   -0.3064    1.0711    1.9444 O   0  0  0  0  0  0  0  0  0  0  0  0
   -0.3790    3.2338    1.3681 O   0  0  0  0  0  0  0  0  0  0  0  0
    1.1248    0.0585   -0.4709 C   0  0  0  0  0  0  0  0  0  0  0  0
    1.3031   -0.7616    0.6086 C   0  0  0  0  0  0  0  0  0  0  0  0
    2.5513   -1.0155    1.1807 C   0  0  0  0  0  0  0  0  0  0  0  0
    3.6720   -0.4280    0.6555 C   0  0  0  0  0  0  0  0  0  0  0  0
    3.5368    0.4018   -0.4287 C   0  0  0  0  0  0  0  0  0  0  0  0
    2.3053    0.6400   -0.9772 C   0  0  0  0  0  0  0  0  0  0  0  0
   -3.5903   -0.4146    0.2130 N   0  0  0  0  0  0  0  0  0  0  0  0
   -0.9540   -3.7827   -0.8035 H   0  0  0  0  0  0  0  0  0  0  0  0
   -1.7407   -0.6030    1.2231 H   0  0  0  0  0  0  0  0  0  0  0  0
   -2.2150    0.4049   -1.6922 H   0  0  0  0  0  0  0  0  0  0  0  0
    0.0740    0.7128   -2.2339 H   0  0  0  0  0  0  0  0  0  0  0  0
   -1.0185    2.4565   -1.0225 H   0  0  0  0  0  0  0  0  0  0  0  0
    0.0675    3.4779    2.2424 H   0  0  0  0  0  0  0  0  0  0  0  0
    0.4827   -1.2698    1.0758 H   0  0  0  0  0  0  0  0  0  0  0  0
    2.6431   -1.6750    2.0392 H   0  0  0  0  0  0  0  0  0  0  0  0
    4.6152   -0.6528    1.1297 H   0  0  0  0  0  0  0  0  0  0  0  0
    4.4235    0.8741   -0.8540 H   0  0  0  0  0  0  0  0  0  0  0  0
    2.2742    1.3080   -1.8338 H   0  0  0  0  0  0  0  0  0  0  0  0
   -3.8401    0.0805    1.0899 H   0  0  0  0  0  0  0  0  0  0  0  0
   -3.9044    0.0928   -0.6318 H   0  0  0  0  0  0  0  0  0  0  0  0
  1  2  1  0
  2  3  2  0
  2  4  1  0
  4  5  1  0
  5  6  1  0
  6  7  1  0
  7  8  1  0
  8  9  2  0
  8 10  1  0
  6 11  1  0
 11 12  2  0
 12 13  1  0
 13 14  2  0
 14 15  1  0
 15 16  2  0
  4 17  1  0
  7  5  1  0
 16 11  1  0
  1 18  1  0
  4 19  1  1
  5 20  1  6
  6 21  1  6
  7 22  1  6
 10 23  1  0
 12 24  1  0
 13 25  1  0
 14 26  1  0
 15 27  1  0
 16 28  1  0
 17 29  1  0
 17 30  1  0
M  END
>  <Ligand ID>  (1) 
LIG0002594

>  <Ligand>  (1) 
CHEMBL2115157

>  <SMILES>  (1) 
OC(=O)[C@@H]([C@@H]1[C@@H]([C@@H]1C(=O)O)c1ccccc1)N

>  <CID>  (1) 
10489914.0

>  <ChEMBL ID>  (1) 
nan

>  <InChiKey>  (1) 
IFLWVSHRWAIVQF-QCLAVDOMSA-N

>  <InChi>  (1) 
InChI=1S/C12H13NO4/c13-10(12(16)17)8-7(9(8)11(14)15)6-4-2-1-3-5-6/h1-5,7-10H,13H2,(H,14,15)(H,16,17)/t7-,8+,9-,10+/m0/s1

>  <IUPAC Name>  (1) 
(1S,2R,3S)-2-[(R)-amino(carboxy)methyl]-3-phenylcyclopropane-1-carboxylic acid

$$$$
