
     RDKit          3D

 17 17  0  0  0  0  0  0  0  0999 V2000
   -2.5761    1.3401    1.3512 O   0  0  0  0  0  0  0  0  0  0  0  0
   -1.6251    0.5886    0.6410 C   0  0  0  0  0  0  0  0  0  0  0  0
   -2.1083   -0.4758   -0.0932 C   0  0  0  0  0  0  0  0  0  0  0  0
   -1.2300   -1.2574   -0.8154 C   0  0  0  0  0  0  0  0  0  0  0  0
    0.1110   -0.9385   -0.7730 C   0  0  0  0  0  0  0  0  0  0  0  0
    0.6085    0.1195   -0.0458 C   0  0  0  0  0  0  0  0  0  0  0  0
   -0.2811    0.8988    0.6764 C   0  0  0  0  0  0  0  0  0  0  0  0
    2.1550    0.4283   -0.0415 B   0  0  0  0  0  0  0  0  0  0  0  0
    2.8074    0.5368   -1.3643 O   0  0  0  0  0  0  0  0  0  0  0  0
    2.9137   -0.3791    0.9393 O   0  0  0  0  0  0  0  0  0  0  0  0
   -2.8857    2.1891    0.8541 H   0  0  0  0  0  0  0  0  0  0  0  0
   -3.1632   -0.7213   -0.1225 H   0  0  0  0  0  0  0  0  0  0  0  0
   -1.5805   -2.1068   -1.4065 H   0  0  0  0  0  0  0  0  0  0  0  0
    0.8176   -1.5324   -1.3276 H   0  0  0  0  0  0  0  0  0  0  0  0
    0.0643    1.7352    1.2583 H   0  0  0  0  0  0  0  0  0  0  0  0
    3.2687   -0.3122   -1.5869 H   0  0  0  0  0  0  0  0  0  0  0  0
    2.7037   -0.1130    1.8566 H   0  0  0  0  0  0  0  0  0  0  0  0
  1  2  1  0
  2  3  2  0
  3  4  1  0
  4  5  2  0
  5  6  1  0
  6  7  2  0
  6  8  1  0
  8  9  1  0
  8 10  1  0
  7  2  1  0
  1 11  1  0
  3 12  1  0
  4 13  1  0
  5 14  1  0
  7 15  1  0
  9 16  1  0
 10 17  1  0
M  END
>  <Ligand ID>  (1) 
LIG0005074

>  <Ligand>  (1) 
3-Hydroxyphenylboronic acid

>  <SMILES>  (1) 
Oc1cccc(c1)B(O)O

>  <CID>  (1) 
2734359.0

>  <ChEMBL ID>  (1) 
nan

>  <InChiKey>  (1) 
WFWQWTPAPNEOFE-UHFFFAOYSA-N

>  <InChi>  (1) 
InChI=1S/C6H7BO3/c8-6-3-1-2-5(4-6)7(9)10/h1-4,8-10H

>  <IUPAC Name>  (1) 
(3-hydroxyphenyl)boronic acid

$$$$
