
     RDKit          3D

 87 87  0  0  0  0  0  0  0  0999 V2000
   -0.9911   -0.0780    0.0377 C   0  0  0  0  0  0  0  0  0  0  0  0
    0.4634    0.2759   -0.1016 C   0  0  0  0  0  0  0  0  0  0  0  0
    0.7548    1.4950   -0.2180 O   0  0  0  0  0  0  0  0  0  0  0  0
    1.4428   -0.7112   -0.1008 O   0  0  0  0  0  0  0  0  0  0  0  0
   10.6971   -4.0698    1.1716 C   0  0  0  0  0  0  0  0  0  0  0  0
   11.0030   -3.0693    2.2604 C   0  0  0  0  0  0  0  0  0  0  0  0
    9.8186   -2.4998    2.8588 N   0  0  0  0  0  0  0  0  0  0  0  0
    8.8884   -1.7762    2.0765 C   0  0  0  0  0  0  0  0  0  0  0  0
    9.0440   -1.5947    0.8392 O   0  0  0  0  0  0  0  0  0  0  0  0
    7.7097   -1.2055    2.6560 N   0  0  0  0  0  0  0  0  0  0  0  0
    6.8518   -0.4997    1.7625 C   0  0  0  0  0  0  0  0  0  0  0  0
    7.1093    0.8546    1.6056 C   0  0  0  0  0  0  0  0  0  0  0  0
    6.2900    1.5413    0.7457 C   0  0  0  0  0  0  0  0  0  0  0  0
    5.2455    0.9235    0.0554 C   0  0  0  0  0  0  0  0  0  0  0  0
    4.9965   -0.4057    0.2125 C   0  0  0  0  0  0  0  0  0  0  0  0
    5.8154   -1.1171    1.0790 C   0  0  0  0  0  0  0  0  0  0  0  0
    4.4591    1.8216   -0.8455 C   0  0  0  0  0  0  0  0  0  0  0  0
    3.3234    2.3987   -0.0636 C   0  0  0  0  0  0  0  0  0  0  0  0
    2.4766    3.3524   -0.9164 C   0  0  0  0  0  0  0  0  0  0  0  0
    1.8970    2.6615   -2.0907 C   0  0  0  0  0  0  0  0  0  0  0  0
    1.1416    3.3722   -2.9369 O   0  0  0  0  0  0  0  0  0  0  0  0
    0.0152    3.9951   -2.5869 C   0  0  0  0  0  0  0  0  0  0  0  0
   -1.1196    3.1465   -2.0456 C   0  0  0  0  0  0  0  0  0  0  0  0
   -1.5647    2.1097   -3.0060 C   0  0  0  0  0  0  0  0  0  0  0  0
   -2.7366    1.2580   -2.5399 C   0  0  0  0  0  0  0  0  0  0  0  0
   -2.3632    0.5582   -1.2782 C   0  0  0  0  0  0  0  0  0  0  0  0
   -3.3633   -0.3999   -0.7601 C   0  0  0  0  0  0  0  0  0  0  0  0
   -4.6606   -0.0549   -0.4186 N   0  0  0  0  0  0  0  0  0  0  0  0
   -5.6505    0.2781   -1.3507 C   0  0  0  0  0  0  0  0  0  0  0  0
   -6.9634    0.4601   -0.5625 C   0  0  1  0  0  0  0  0  0  0  0  0
   -7.3472   -0.8080    0.0857 C   0  0  0  0  0  0  0  0  0  0  0  0
   -6.7105   -2.0107   -0.0962 C   0  0  0  0  0  0  0  0  0  0  0  0
   -7.1507   -3.1691    0.5455 C   0  0  0  0  0  0  0  0  0  0  0  0
   -8.2602   -3.0890    1.3851 C   0  0  0  0  0  0  0  0  0  0  0  0
   -8.9105   -1.8925    1.5798 C   0  0  0  0  0  0  0  0  0  0  0  0
   -8.4388   -0.7906    0.9284 C   0  0  0  0  0  0  0  0  0  0  0  0
  -10.0944   -1.8372    2.4803 C   0  0  0  0  0  0  0  0  0  0  0  0
  -11.2205   -2.3872    1.8585 O   0  0  0  0  0  0  0  0  0  0  0  0
   -8.7410   -4.2128    2.0493 O   0  0  0  0  0  0  0  0  0  0  0  0
   -6.8274    1.4724    0.3690 O   0  0  0  0  0  0  0  0  0  0  0  0
   -1.4003    0.4588    0.9177 H   0  0  0  0  0  0  0  0  0  0  0  0
   -1.5577    0.1736   -0.8872 H   0  0  0  0  0  0  0  0  0  0  0  0
   -1.1287   -1.1497    0.2248 H   0  0  0  0  0  0  0  0  0  0  0  0
    2.4167   -0.4644    0.1275 H   0  0  0  0  0  0  0  0  0  0  0  0
   10.2896   -5.0233    1.5431 H   0  0  0  0  0  0  0  0  0  0  0  0
   11.6825   -4.3205    0.6961 H   0  0  0  0  0  0  0  0  0  0  0  0
   10.0781   -3.6360    0.3512 H   0  0  0  0  0  0  0  0  0  0  0  0
   11.7094   -2.3433    1.8515 H   0  0  0  0  0  0  0  0  0  0  0  0
   11.5198   -3.6428    3.0683 H   0  0  0  0  0  0  0  0  0  0  0  0
    9.5922   -2.5905    3.8823 H   0  0  0  0  0  0  0  0  0  0  0  0
    7.5037   -1.3041    3.6616 H   0  0  0  0  0  0  0  0  0  0  0  0
    7.9104    1.3622    2.1260 H   0  0  0  0  0  0  0  0  0  0  0  0
    6.4908    2.6047    0.6212 H   0  0  0  0  0  0  0  0  0  0  0  0
    4.1823   -0.8651   -0.3336 H   0  0  0  0  0  0  0  0  0  0  0  0
    5.6392   -2.1827    1.2256 H   0  0  0  0  0  0  0  0  0  0  0  0
    4.0276    1.1215   -1.6170 H   0  0  0  0  0  0  0  0  0  0  0  0
    5.0803    2.5608   -1.3520 H   0  0  0  0  0  0  0  0  0  0  0  0
    2.6171    1.6144    0.2817 H   0  0  0  0  0  0  0  0  0  0  0  0
    3.6465    2.9659    0.8229 H   0  0  0  0  0  0  0  0  0  0  0  0
    3.1193    4.2008   -1.1299 H   0  0  0  0  0  0  0  0  0  0  0  0
    1.6235    3.6453   -0.2439 H   0  0  0  0  0  0  0  0  0  0  0  0
    1.3608    1.7265   -1.8073 H   0  0  0  0  0  0  0  0  0  0  0  0
    2.7785    2.2701   -2.6896 H   0  0  0  0  0  0  0  0  0  0  0  0
   -0.3996    4.4894   -3.4958 H   0  0  0  0  0  0  0  0  0  0  0  0
    0.1357    4.8459   -1.8584 H   0  0  0  0  0  0  0  0  0  0  0  0
   -1.9744    3.8380   -1.8489 H   0  0  0  0  0  0  0  0  0  0  0  0
   -0.8548    2.7327   -1.0505 H   0  0  0  0  0  0  0  0  0  0  0  0
   -1.8903    2.5283   -3.9851 H   0  0  0  0  0  0  0  0  0  0  0  0
   -0.7335    1.3571   -3.1501 H   0  0  0  0  0  0  0  0  0  0  0  0
   -3.5775    1.9900   -2.3758 H   0  0  0  0  0  0  0  0  0  0  0  0
   -2.9615    0.5249   -3.3157 H   0  0  0  0  0  0  0  0  0  0  0  0
   -2.0316    1.2804   -0.4801 H   0  0  0  0  0  0  0  0  0  0  0  0
   -1.4014   -0.0049   -1.5030 H   0  0  0  0  0  0  0  0  0  0  0  0
   -3.3549   -1.3020   -1.4600 H   0  0  0  0  0  0  0  0  0  0  0  0
   -2.9052   -0.8823    0.1874 H   0  0  0  0  0  0  0  0  0  0  0  0
   -4.9283   -0.0698    0.5767 H   0  0  0  0  0  0  0  0  0  0  0  0
   -5.5655    1.2057   -1.9235 H   0  0  0  0  0  0  0  0  0  0  0  0
   -5.8714   -0.5737   -2.0441 H   0  0  0  0  0  0  0  0  0  0  0  0
   -7.7683    0.7812   -1.2704 H   0  0  0  0  0  0  0  0  0  0  0  0
   -5.8549   -2.0860   -0.7341 H   0  0  0  0  0  0  0  0  0  0  0  0
   -6.6721   -4.1204    0.4205 H   0  0  0  0  0  0  0  0  0  0  0  0
   -8.9726    0.1495    1.0985 H   0  0  0  0  0  0  0  0  0  0  0  0
  -10.3161   -0.7730    2.7312 H   0  0  0  0  0  0  0  0  0  0  0  0
   -9.8778   -2.3674    3.4163 H   0  0  0  0  0  0  0  0  0  0  0  0
  -11.8619   -1.6750    1.5917 H   0  0  0  0  0  0  0  0  0  0  0  0
   -9.7145   -4.2727    2.3253 H   0  0  0  0  0  0  0  0  0  0  0  0
   -6.1586    2.1509    0.0828 H   0  0  0  0  0  0  0  0  0  0  0  0
  1  2  1  0
  2  3  2  0
  2  4  1  0
  5  6  1  0
  6  7  1  0
  7  8  1  0
  8  9  2  0
  8 10  1  0
 10 11  1  0
 11 12  2  0
 12 13  1  0
 13 14  2  0
 14 15  1  0
 15 16  2  0
 14 17  1  0
 17 18  1  0
 18 19  1  0
 19 20  1  0
 20 21  1  0
 21 22  1  0
 22 23  1  0
 23 24  1  0
 24 25  1  0
 25 26  1  0
 26 27  1  0
 27 28  1  0
 28 29  1  0
 29 30  1  0
 30 31  1  0
 31 32  2  0
 32 33  1  0
 33 34  2  0
 34 35  1  0
 35 36  2  0
 35 37  1  0
 37 38  1  0
 34 39  1  0
 30 40  1  0
 16 11  1  0
 36 31  1  0
  1 41  1  0
  1 42  1  0
  1 43  1  0
  4 44  1  0
  5 45  1  0
  5 46  1  0
  5 47  1  0
  6 48  1  0
  6 49  1  0
  7 50  1  0
 10 51  1  0
 12 52  1  0
 13 53  1  0
 15 54  1  0
 16 55  1  0
 17 56  1  0
 17 57  1  0
 18 58  1  0
 18 59  1  0
 19 60  1  0
 19 61  1  0
 20 62  1  0
 20 63  1  0
 22 64  1  0
 22 65  1  0
 23 66  1  0
 23 67  1  0
 24 68  1  0
 24 69  1  0
 25 70  1  0
 25 71  1  0
 26 72  1  0
 26 73  1  0
 27 74  1  0
 27 75  1  0
 28 76  1  0
 29 77  1  0
 29 78  1  0
 30 79  1  6
 32 80  1  0
 33 81  1  0
 36 82  1  0
 37 83  1  0
 37 84  1  0
 38 85  1  0
 39 86  1  0
 40 87  1  0
M  END
>  <Ligand ID>  (1) 
LIG0004417

>  <Ligand>  (1) 
CHEMBL1835856

>  <SMILES>  (1) 
CC(=O)O.CCNC(=O)Nc1ccc(cc1)CCCCOCCCCCCNC[C@@H](c1ccc(c(c1)CO)O)O

>  <CID>  (1) 
56658404.0

>  <ChEMBL ID>  (1) 
nan

>  <InChiKey>  (1) 
GMGFBZOGVWBXCB-YCBFMBTMSA-N

>  <InChi>  (1) 
InChI=1S/C28H43N3O5.C2H4O2/c1-2-30-28(35)31-25-13-10-22(11-14-25)9-5-8-18-36-17-7-4-3-6-16-29-20-27(34)23-12-15-26(33)24(19-23)21-32;1-2(3)4/h10-15,19,27,29,32-34H,2-9,16-18,20-21H2,1H3,(H2,30,31,35);1H3,(H,3,4)/t27-;/m0./s1

>  <IUPAC Name>  (1) 
acetic acid;1-ethyl-3-[4-[4-[6-[[(2R)-2-hydroxy-2-[4-hydroxy-3-(hydroxymethyl)phenyl]ethyl]amino]hexoxy]butyl]phenyl]urea

$$$$
