
     RDKit          3D

 24 24  0  0  0  0  0  0  0  0999 V2000
    3.6177    0.6455   -0.1600 C   0  0  0  0  0  0  0  0  0  0  0  0
    2.3724    0.0389   -0.7002 C   0  0  0  0  0  0  0  0  0  0  0  0
    2.2589   -0.0591   -1.9489 O   0  0  0  0  0  0  0  0  0  0  0  0
    1.3478   -0.4157    0.1045 O   0  0  0  0  0  0  0  0  0  0  0  0
    0.1493   -1.0010   -0.4559 C   0  0  0  0  0  0  0  0  0  0  0  0
    0.1720   -2.3888    0.0636 C   0  0  0  0  0  0  0  0  0  0  0  0
   -1.1148   -3.4559   -0.3947 Cl  0  0  0  0  0  0  0  0  0  0  0  0
    1.7031   -3.1072   -0.5591 Cl  0  0  0  0  0  0  0  0  0  0  0  0
    0.3618   -2.3924    1.8478 Cl  0  0  0  0  0  0  0  0  0  0  0  0
   -0.9309   -0.1225   -0.0426 C   0  0  0  0  0  0  0  0  0  0  0  0
   -2.1403   -0.4924    0.4881 C   0  0  0  0  0  0  0  0  0  0  0  0
   -3.1253    0.3995    0.8583 C   0  0  0  0  0  0  0  0  0  0  0  0
   -2.9174    1.7531    0.7002 C   0  0  0  0  0  0  0  0  0  0  0  0
   -1.7080    2.1499    0.1683 C   0  0  0  0  0  0  0  0  0  0  0  0
   -0.7341    1.2581   -0.1973 C   0  0  0  0  0  0  0  0  0  0  0  0
    3.3776    1.2209    0.7533 H   0  0  0  0  0  0  0  0  0  0  0  0
    4.3217   -0.1942    0.1042 H   0  0  0  0  0  0  0  0  0  0  0  0
    4.0816    1.3298   -0.9030 H   0  0  0  0  0  0  0  0  0  0  0  0
    0.2909   -0.9733   -1.5540 H   0  0  0  0  0  0  0  0  0  0  0  0
   -2.3545   -1.5371    0.6351 H   0  0  0  0  0  0  0  0  0  0  0  0
   -4.0722    0.0423    1.2772 H   0  0  0  0  0  0  0  0  0  0  0  0
   -3.6743    2.4683    0.9832 H   0  0  0  0  0  0  0  0  0  0  0  0
   -1.4934    3.2079    0.0227 H   0  0  0  0  0  0  0  0  0  0  0  0
    0.2106    1.6255   -0.6158 H   0  0  0  0  0  0  0  0  0  0  0  0
  1  2  1  0
  2  3  2  0
  2  4  1  0
  4  5  1  0
  5  6  1  0
  6  7  1  0
  6  8  1  0
  6  9  1  0
  5 10  1  0
 10 11  2  0
 11 12  1  0
 12 13  2  0
 13 14  1  0
 14 15  2  0
 15 10  1  0
  1 16  1  0
  1 17  1  0
  1 18  1  0
  5 19  1  0
 11 20  1  0
 12 21  1  0
 13 22  1  0
 14 23  1  0
 15 24  1  0
M  END
>  <Ligand ID>  (1) 
LIG0000366

>  <Ligand>  (1) 
Rosacetol

>  <SMILES>  (1) 
CC(=O)OC(C(Cl)(Cl)Cl)c1ccccc1

>  <CID>  (1) 
7007.0

>  <ChEMBL ID>  (1) 
nan

>  <InChiKey>  (1) 
JKRWZLOCPLZZEI-UHFFFAOYSA-N

>  <InChi>  (1) 
InChI=1S/C10H9Cl3O2/c1-7(14)15-9(10(11,12)13)8-5-3-2-4-6-8/h2-6,9H,1H3

>  <IUPAC Name>  (1) 
(2,2,2-trichloro-1-phenylethyl) acetate

$$$$
