
     RDKit          3D

 20 20  0  0  0  0  0  0  0  0999 V2000
   -2.6556   -0.0413    0.5511 C   0  0  0  0  0  0  0  0  0  0  0  0
   -1.3047   -0.3173   -0.1199 C   0  0  0  0  0  0  0  0  0  0  0  0
   -0.2543    0.1402    0.8170 C   0  0  0  0  0  0  0  0  0  0  0  0
    1.0884   -0.1054    0.2124 C   0  0  0  0  0  0  0  0  0  0  0  0
    1.7256   -0.4772   -0.6292 N   0  0  0  0  0  0  0  0  0  0  0  0
    3.0415   -0.5410   -0.8316 C   0  0  0  0  0  0  0  0  0  0  0  0
    3.7626   -0.0485    0.2084 C   0  0  0  0  0  0  0  0  0  0  0  0
    2.4815    0.4821    1.4273 S   0  0  0  0  0  0  0  0  0  0  0  0
   -1.3103    0.4449   -1.4257 C   0  0  0  0  0  0  0  0  0  0  0  0
   -3.4332   -0.5834   -0.0295 H   0  0  0  0  0  0  0  0  0  0  0  0
   -2.9049    1.0336    0.4492 H   0  0  0  0  0  0  0  0  0  0  0  0
   -2.6082   -0.3528    1.6125 H   0  0  0  0  0  0  0  0  0  0  0  0
   -1.2861   -1.4058   -0.2737 H   0  0  0  0  0  0  0  0  0  0  0  0
   -0.3541    1.2339    1.0030 H   0  0  0  0  0  0  0  0  0  0  0  0
   -0.3505   -0.4295    1.7663 H   0  0  0  0  0  0  0  0  0  0  0  0
    3.5324   -0.9438   -1.7341 H   0  0  0  0  0  0  0  0  0  0  0  0
    4.8861    0.0756    0.4252 H   0  0  0  0  0  0  0  0  0  0  0  0
   -2.1801    1.1423   -1.5054 H   0  0  0  0  0  0  0  0  0  0  0  0
   -0.3748    1.0003   -1.6284 H   0  0  0  0  0  0  0  0  0  0  0  0
   -1.5013   -0.3068   -2.2480 H   0  0  0  0  0  0  0  0  0  0  0  0
  1  2  1  0
  2  3  1  0
  3  4  1  0
  4  5  2  0
  5  6  1  0
  6  7  2  0
  7  8  1  0
  2  9  1  0
  8  4  1  0
  1 10  1  0
  1 11  1  0
  1 12  1  0
  2 13  1  0
  3 14  1  0
  3 15  1  0
  6 16  1  0
  7 17  1  0
  9 18  1  0
  9 19  1  0
  9 20  1  0
M  END
>  <Ligand ID>  (1) 
LIG0000312

>  <Ligand>  (1) 
2-Isobutylthiazole

>  <SMILES>  (1) 
CC(Cc1nccs1)C

>  <CID>  (1) 
62725.0

>  <ChEMBL ID>  (1) 
nan

>  <InChiKey>  (1) 
CMPVUVUNJQERIT-UHFFFAOYSA-N

>  <InChi>  (1) 
InChI=1S/C7H11NS/c1-6(2)5-7-8-3-4-9-7/h3-4,6H,5H2,1-2H3

>  <IUPAC Name>  (1) 
2-(2-methylpropyl)-1,3-thiazole

$$$$
