
     RDKit          3D

 26 28  0  0  0  0  0  0  0  0999 V2000
    3.6347    3.4435   -1.7665 O   0  0  0  0  0  0  0  0  0  0  0  0
    2.4850    3.0133   -1.5875 C   0  0  0  0  0  0  0  0  0  0  0  0
    2.1710    1.7704   -0.8901 C   0  0  0  0  0  0  0  0  0  0  0  0
    3.1880    0.9959   -0.3829 C   0  0  0  0  0  0  0  0  0  0  0  0
    2.9800   -0.1846    0.2848 C   0  0  0  0  0  0  0  0  0  0  0  0
    1.6687   -0.6287    0.4622 C   0  0  0  0  0  0  0  0  0  0  0  0
    0.6809    0.1676   -0.0557 C   0  0  0  0  0  0  0  0  0  0  0  0
    0.9137    1.3249   -0.7086 N   0  0  0  0  0  0  0  0  0  0  0  0
   -0.6198   -0.2376    0.0998 C   0  0  0  0  0  0  0  0  0  0  0  0
   -1.6092    0.5252   -0.3989 N   0  0  0  0  0  0  0  0  0  0  0  0
   -2.8942    0.1504   -0.2600 C   0  0  0  0  0  0  0  0  0  0  0  0
   -3.9913    0.9687   -0.7971 C   0  0  0  0  0  0  0  0  0  0  0  0
   -5.1860    0.5729   -0.6406 O   0  0  0  0  0  0  0  0  0  0  0  0
   -3.1729   -1.0317    0.4044 C   0  0  0  0  0  0  0  0  0  0  0  0
   -2.1915   -1.8439    0.9311 C   0  0  0  0  0  0  0  0  0  0  0  0
   -0.8839   -1.4173    0.7637 C   0  0  0  0  0  0  0  0  0  0  0  0
    0.0999   -2.2288    1.2902 C   0  0  0  0  0  0  0  0  0  0  0  0
    1.4238   -1.8106    1.1285 C   0  0  0  0  0  0  0  0  0  0  0  0
    1.6446    3.5971   -1.9742 H   0  0  0  0  0  0  0  0  0  0  0  0
    4.2135    1.3300   -0.5141 H   0  0  0  0  0  0  0  0  0  0  0  0
    3.8004   -0.7507    0.6602 H   0  0  0  0  0  0  0  0  0  0  0  0
   -3.7372    1.8848   -1.3097 H   0  0  0  0  0  0  0  0  0  0  0  0
   -4.2024   -1.3049    0.5001 H   0  0  0  0  0  0  0  0  0  0  0  0
   -2.4685   -2.7396    1.4306 H   0  0  0  0  0  0  0  0  0  0  0  0
   -0.1607   -3.1422    1.8008 H   0  0  0  0  0  0  0  0  0  0  0  0
    2.2136   -2.4242    1.5294 H   0  0  0  0  0  0  0  0  0  0  0  0
  1  2  2  0
  2  3  1  0
  3  4  2  0
  4  5  1  0
  5  6  2  0
  6  7  1  0
  7  8  2  0
  7  9  1  0
  9 10  2  0
 10 11  1  0
 11 12  1  0
 12 13  2  0
 11 14  2  0
 14 15  1  0
 15 16  2  0
 16 17  1  0
 17 18  2  0
  8  3  1  0
 16  9  1  0
 18  6  1  0
  2 19  1  0
  4 20  1  0
  5 21  1  0
 12 22  1  0
 14 23  1  0
 15 24  1  0
 17 25  1  0
 18 26  1  0
M  END
>  <Ligand ID>  (1) 
LIG0002801

>  <Ligand>  (1) 
1,10-phenanthroline-2,9-dicarbaldehyde

>  <SMILES>  (1) 
O=Cc1ccc2c(n1)c1nc(C=O)ccc1cc2

>  <CID>  (1) 
602123.0

>  <ChEMBL ID>  (1) 
nan

>  <InChiKey>  (1) 
RHXOPVFYZBGQGA-UHFFFAOYSA-N

>  <InChi>  (1) 
InChI=1S/C14H8N2O2/c17-7-11-5-3-9-1-2-10-4-6-12(8-18)16-14(10)13(9)15-11/h1-8H

>  <IUPAC Name>  (1) 
1,10-phenanthroline-2,9-dicarbaldehyde

$$$$
