
     RDKit          3D

 68 75  0  0  0  0  0  0  0  0999 V2000
   -4.8854   -3.5299   -2.6607 C   0  0  0  0  0  0  0  0  0  0  0  0
   -3.7068   -2.8352   -2.3153 O   0  0  0  0  0  0  0  0  0  0  0  0
   -3.7116   -1.7175   -1.4999 C   0  0  0  0  0  0  0  0  0  0  0  0
   -4.8899   -1.1919   -0.9554 C   0  0  0  0  0  0  0  0  0  0  0  0
   -4.8745   -0.0582   -0.1295 C   0  0  0  0  0  0  0  0  0  0  0  0
   -3.6511    0.5617    0.1545 C   0  0  0  0  0  0  0  0  0  0  0  0
   -2.5654   -0.0113   -0.4169 C   0  0  0  0  0  0  0  0  0  0  0  0
   -2.4958   -1.0986   -1.2151 C   0  0  0  0  0  0  0  0  0  0  0  0
   -1.1581   -1.2939   -1.5270 O   0  0  0  0  0  0  0  0  0  0  0  0
   -0.2982   -0.5413   -0.6890 C   0  0  1  0  0  0  0  0  0  0  0  0
   -1.2427    0.5785   -0.2418 C   0  0  1  0  0  0  0  0  0  0  0  0
   -0.9723    1.7492   -1.1050 C   0  0  0  0  0  0  0  0  0  0  0  0
   -1.7731    2.9341   -0.7302 C   0  0  0  0  0  0  0  0  0  0  0  0
   -1.7464    3.2017    0.6701 N   0  0  0  0  0  0  0  0  0  0  0  0
   -2.0890    2.0428    1.4647 C   0  0  1  0  0  0  0  0  0  0  0  0
   -3.5072    1.7079    1.0689 C   0  0  0  0  0  0  0  0  0  0  0  0
   -1.1534    0.9000    1.2243 C   0  0  1  0  0  0  0  0  0  0  0  0
   -1.6174   -0.3073    2.0233 C   0  0  0  0  0  0  0  0  0  0  0  0
   -0.9802   -1.5486    1.4438 C   0  0  0  0  0  0  0  0  0  0  0  0
    0.1940   -1.1797    0.5463 C   0  0  1  0  0  0  0  0  0  0  0  0
    0.9798   -2.3107    0.3727 O   0  0  0  0  0  0  0  0  0  0  0  0
    0.3551   -3.3369   -0.2853 C   0  0  0  0  0  0  0  0  0  0  0  0
    1.0555   -0.1232    1.2637 C   0  0  1  0  0  0  0  0  0  0  0  0
    0.2719    1.1112    1.6481 C   0  0  0  0  0  0  0  0  0  0  0  0
    1.7433   -0.7176    2.4561 C   0  0  0  0  0  0  0  0  0  0  0  0
    2.8160   -2.0726    1.9967 S   0  0  0  0  0  0  0  0  0  0  0  0
    4.1466   -1.2057    0.9747 C   0  0  0  0  0  0  0  0  0  0  0  0
    4.4624   -0.2125    0.5923 N   0  0  0  0  0  0  0  0  0  0  0  0
    5.4994    0.1422   -0.1479 C   0  0  0  0  0  0  0  0  0  0  0  0
    6.3097   -0.9105   -0.4903 C   0  0  0  0  0  0  0  0  0  0  0  0
    5.5042   -2.3439    0.2902 S   0  0  0  0  0  0  0  0  0  0  0  0
    7.4555   -0.8257   -1.2538 C   0  0  0  0  0  0  0  0  0  0  0  0
    7.8460    0.4318   -1.7322 C   0  0  0  0  0  0  0  0  0  0  0  0
    7.0285    1.4798   -1.3842 C   0  0  0  0  0  0  0  0  0  0  0  0
    5.8951    1.3923   -0.6283 C   0  0  0  0  0  0  0  0  0  0  0  0
   -0.7735    4.0728    1.1760 C   0  0  0  0  0  0  0  0  0  0  0  0
   -5.4721   -3.8580   -1.7992 H   0  0  0  0  0  0  0  0  0  0  0  0
   -5.4697   -2.8774   -3.3366 H   0  0  0  0  0  0  0  0  0  0  0  0
   -4.5693   -4.4613   -3.1934 H   0  0  0  0  0  0  0  0  0  0  0  0
   -5.8486   -1.6779   -1.1802 H   0  0  0  0  0  0  0  0  0  0  0  0
   -5.7719    0.3541    0.2960 H   0  0  0  0  0  0  0  0  0  0  0  0
    0.5597   -0.1154   -1.2316 H   0  0  0  0  0  0  0  0  0  0  0  0
   -1.1916    1.4477   -2.1625 H   0  0  0  0  0  0  0  0  0  0  0  0
    0.1021    2.0520   -1.0662 H   0  0  0  0  0  0  0  0  0  0  0  0
   -1.3616    3.8448   -1.2388 H   0  0  0  0  0  0  0  0  0  0  0  0
   -2.8281    2.8693   -1.1142 H   0  0  0  0  0  0  0  0  0  0  0  0
   -2.0631    2.3344    2.5200 H   0  0  0  0  0  0  0  0  0  0  0  0
   -3.9660    2.6155    0.5743 H   0  0  0  0  0  0  0  0  0  0  0  0
   -4.1197    1.5750    1.9985 H   0  0  0  0  0  0  0  0  0  0  0  0
   -1.2162   -0.2396    3.0782 H   0  0  0  0  0  0  0  0  0  0  0  0
   -2.6847   -0.4211    2.1307 H   0  0  0  0  0  0  0  0  0  0  0  0
   -1.6842   -2.1364    0.8281 H   0  0  0  0  0  0  0  0  0  0  0  0
   -0.6194   -2.2374    2.2407 H   0  0  0  0  0  0  0  0  0  0  0  0
   -0.5618   -3.7187    0.2169 H   0  0  0  0  0  0  0  0  0  0  0  0
    1.0694   -4.2132   -0.2403 H   0  0  0  0  0  0  0  0  0  0  0  0
    0.1929   -3.1862   -1.3675 H   0  0  0  0  0  0  0  0  0  0  0  0
    1.8344    0.1915    0.5390 H   0  0  0  0  0  0  0  0  0  0  0  0
    0.2648    1.1738    2.7611 H   0  0  0  0  0  0  0  0  0  0  0  0
    0.7345    2.0369    1.2503 H   0  0  0  0  0  0  0  0  0  0  0  0
    1.0319   -1.0660    3.2200 H   0  0  0  0  0  0  0  0  0  0  0  0
    2.4088    0.0961    2.8579 H   0  0  0  0  0  0  0  0  0  0  0  0
    8.0023   -1.7203   -1.4524 H   0  0  0  0  0  0  0  0  0  0  0  0
    8.7329    0.5038   -2.3243 H   0  0  0  0  0  0  0  0  0  0  0  0
    7.3331    2.4648   -1.7584 H   0  0  0  0  0  0  0  0  0  0  0  0
    5.3504    2.2979   -0.4328 H   0  0  0  0  0  0  0  0  0  0  0  0
    0.1323    4.2443    0.5671 H   0  0  0  0  0  0  0  0  0  0  0  0
   -1.2495    5.0985    1.2427 H   0  0  0  0  0  0  0  0  0  0  0  0
   -0.5430    3.7951    2.2443 H   0  0  0  0  0  0  0  0  0  0  0  0
  1  2  1  0
  2  3  1  0
  3  4  2  0
  4  5  1  0
  5  6  2  0
  6  7  1  0
  7  8  2  0
  8  9  1  0
  9 10  1  0
 10 11  1  0
 11 12  1  6
 12 13  1  0
 13 14  1  0
 14 15  1  0
 15 16  1  0
 15 17  1  0
 17 18  1  1
 18 19  1  0
 19 20  1  0
 20 21  1  6
 21 22  1  0
 20 23  1  0
 23 24  1  0
 23 25  1  0
 25 26  1  0
 26 27  1  0
 27 28  2  0
 28 29  1  0
 29 30  2  0
 30 31  1  0
 30 32  1  0
 32 33  2  0
 33 34  1  0
 34 35  2  0
 14 36  1  0
  8  3  1  0
 20 10  1  0
 31 27  1  0
 16  6  1  0
 24 17  1  0
 35 29  1  0
 11  7  1  0
 17 11  1  0
  1 37  1  0
  1 38  1  0
  1 39  1  0
  4 40  1  0
  5 41  1  0
 10 42  1  6
 12 43  1  0
 12 44  1  0
 13 45  1  0
 13 46  1  0
 15 47  1  1
 16 48  1  0
 16 49  1  0
 18 50  1  0
 18 51  1  0
 19 52  1  0
 19 53  1  0
 22 54  1  0
 22 55  1  0
 22 56  1  0
 23 57  1  6
 24 58  1  0
 24 59  1  0
 25 60  1  0
 25 61  1  0
 32 62  1  0
 33 63  1  0
 34 64  1  0
 35 65  1  0
 36 66  1  0
 36 67  1  0
 36 68  1  0
M  END
>  <Ligand ID>  (1) 
LIG0004625

>  <Ligand>  (1) 
CHEMBL3946094

>  <SMILES>  (1) 
COc1ccc2c3c1O[C@H]1[C@]43CCN([C@@H](C2)[C@]24CC[C@]1(OC)[C@@H](C2)CSc1nc2c(s1)cccc2)C

>  <CID>  (1) 
134147811.0

>  <ChEMBL ID>  (1) 
nan

>  <InChiKey>  (1) 
YFKQYHWQDZXKGP-GKBUFTBPSA-N

>  <InChi>  (1) 
InChI=1S/C29H32N2O3S2/c1-31-13-12-28-23-17-8-9-20(32-2)24(23)34-25(28)29(33-3)11-10-27(28,22(31)14-17)15-18(29)16-35-26-30-19-6-4-5-7-21(19)36-26/h4-9,18,22,25H,10-16H2,1-3H3/t18-,22-,25-,27-,28+,29-/m0/s1

>  <IUPAC Name>  (1) 
(1R,2R,6S,14S,15S,16R)-16-(1,3-benzothiazol-2-ylsulfanylmethyl)-11,15-dimethoxy-5-methyl-13-oxa-5-azahexacyclo[13.2.2.12,8.01,6.02,14.012,20]icosa-8(20),9,11-triene

$$$$
