
     RDKit          3D

 22 21  0  0  0  0  0  0  0  0999 V2000
    3.5850    1.0165    0.1797 S   0  0  0  0  0  0  0  0  0  0  0  0
    2.5714   -0.3534    0.7364 C   0  0  0  0  0  0  0  0  0  0  0  0
    1.2906   -0.4996   -0.0500 C   0  0  0  0  0  0  0  0  0  0  0  0
    0.4195    0.7201    0.0370 C   0  0  0  0  0  0  0  0  0  0  0  0
   -0.8542    0.5394   -0.7617 C   0  0  0  0  0  0  0  0  0  0  0  0
   -1.6777   -0.6154   -0.2886 C   0  0  0  0  0  0  0  0  0  0  0  0
   -2.1143   -0.4864    1.1502 C   0  0  0  0  0  0  0  0  0  0  0  0
   -3.1201    1.0018    1.4034 S   0  0  0  0  0  0  0  0  0  0  0  0
    4.8164    0.9264    0.8594 H   0  0  0  0  0  0  0  0  0  0  0  0
    3.1467   -1.2951    0.6201 H   0  0  0  0  0  0  0  0  0  0  0  0
    2.3627   -0.2271    1.8137 H   0  0  0  0  0  0  0  0  0  0  0  0
    0.7537   -1.3783    0.3622 H   0  0  0  0  0  0  0  0  0  0  0  0
    1.5185   -0.7307   -1.1080 H   0  0  0  0  0  0  0  0  0  0  0  0
    0.9338    1.6065   -0.3880 H   0  0  0  0  0  0  0  0  0  0  0  0
    0.2262    0.9573    1.1022 H   0  0  0  0  0  0  0  0  0  0  0  0
   -0.5164    0.2668   -1.8008 H   0  0  0  0  0  0  0  0  0  0  0  0
   -1.4218    1.4654   -0.8674 H   0  0  0  0  0  0  0  0  0  0  0  0
   -1.1379   -1.5602   -0.4485 H   0  0  0  0  0  0  0  0  0  0  0  0
   -2.6080   -0.6201   -0.8937 H   0  0  0  0  0  0  0  0  0  0  0  0
   -1.2649   -0.4540    1.8515 H   0  0  0  0  0  0  0  0  0  0  0  0
   -2.7384   -1.3507    1.4033 H   0  0  0  0  0  0  0  0  0  0  0  0
   -4.1707    1.0707    0.4707 H   0  0  0  0  0  0  0  0  0  0  0  0
  1  2  1  0
  2  3  1  0
  3  4  1  0
  4  5  1  0
  5  6  1  0
  6  7  1  0
  7  8  1  0
  1  9  1  0
  2 10  1  0
  2 11  1  0
  3 12  1  0
  3 13  1  0
  4 14  1  0
  4 15  1  0
  5 16  1  0
  5 17  1  0
  6 18  1  0
  6 19  1  0
  7 20  1  0
  7 21  1  0
  8 22  1  0
M  END
>  <Ligand ID>  (1) 
LIG0000783

>  <Ligand>  (1) 
hexane-1,6-dithiol

>  <SMILES>  (1) 
SCCCCCCS

>  <CID>  (1) 
14491.0

>  <ChEMBL ID>  (1) 
nan

>  <InChiKey>  (1) 
SRZXCOWFGPICGA-UHFFFAOYSA-N

>  <InChi>  (1) 
InChI=1S/C6H14S2/c7-5-3-1-2-4-6-8/h7-8H,1-6H2

>  <IUPAC Name>  (1) 
hexane-1,6-dithiol

$$$$
