
     RDKit          3D

 34 35  0  0  0  0  0  0  0  0999 V2000
   -3.0823    0.2802   -1.0120 C   0  0  0  0  0  0  0  0  0  0  0  0
   -2.5810   -0.8122   -0.0588 C   0  0  0  0  0  0  0  0  0  0  0  0
   -1.6778   -0.2174    0.9686 C   0  0  0  0  0  0  0  0  0  0  0  0
   -1.1706   -1.3013    1.9273 C   0  0  0  0  0  0  0  0  0  0  0  0
   -0.9524   -2.4501    1.1419 N   0  0  0  0  0  0  0  0  0  0  0  0
    0.2120   -2.5906    0.3852 C   0  0  0  0  0  0  0  0  0  0  0  0
    1.2482   -1.5480    0.3829 C   0  0  0  0  0  0  0  0  0  0  0  0
    0.7875   -0.1629    0.1611 C   0  0  0  0  0  0  0  0  0  0  0  0
   -0.4522    0.3954    0.4108 C   0  0  0  0  0  0  0  0  0  0  0  0
   -0.6296    1.7318    0.1109 C   0  0  0  0  0  0  0  0  0  0  0  0
    0.4029    2.4791   -0.4208 C   0  0  0  0  0  0  0  0  0  0  0  0
    0.1655    4.3408   -0.8417 Br  0  0  0  0  0  0  0  0  0  0  0  0
    1.6585    1.9310   -0.6783 C   0  0  0  0  0  0  0  0  0  0  0  0
    1.8209    0.5935   -0.3733 C   0  0  0  0  0  0  0  0  0  0  0  0
    2.6679    2.7184   -1.2132 O   0  0  0  0  0  0  0  0  0  0  0  0
    3.9597    2.2401   -1.5009 C   0  0  0  0  0  0  0  0  0  0  0  0
   -3.5915    1.0468   -0.3721 H   0  0  0  0  0  0  0  0  0  0  0  0
   -3.7962   -0.1411   -1.7374 H   0  0  0  0  0  0  0  0  0  0  0  0
   -2.1915    0.7219   -1.5070 H   0  0  0  0  0  0  0  0  0  0  0  0
   -2.1640   -1.6575   -0.6190 H   0  0  0  0  0  0  0  0  0  0  0  0
   -3.4858   -1.1677    0.4771 H   0  0  0  0  0  0  0  0  0  0  0  0
   -2.2792    0.5253    1.5374 H   0  0  0  0  0  0  0  0  0  0  0  0
   -0.3136   -0.9164    2.4958 H   0  0  0  0  0  0  0  0  0  0  0  0
   -2.0285   -1.5110    2.6120 H   0  0  0  0  0  0  0  0  0  0  0  0
   -1.2084   -3.3192    1.6885 H   0  0  0  0  0  0  0  0  0  0  0  0
    0.7239   -3.5304    0.7215 H   0  0  0  0  0  0  0  0  0  0  0  0
   -0.0694   -2.8276   -0.6829 H   0  0  0  0  0  0  0  0  0  0  0  0
    1.9335   -1.7779   -0.4872 H   0  0  0  0  0  0  0  0  0  0  0  0
    1.9308   -1.6114    1.2622 H   0  0  0  0  0  0  0  0  0  0  0  0
   -1.5832    2.2188    0.2875 H   0  0  0  0  0  0  0  0  0  0  0  0
    2.7742    0.1145   -0.5521 H   0  0  0  0  0  0  0  0  0  0  0  0
    4.0342    1.6197   -2.4047 H   0  0  0  0  0  0  0  0  0  0  0  0
    4.7290    3.0244   -1.4766 H   0  0  0  0  0  0  0  0  0  0  0  0
    4.2083    1.5610   -0.6328 H   0  0  0  0  0  0  0  0  0  0  0  0
  1  2  1  0
  2  3  1  0
  3  4  1  0
  4  5  1  0
  5  6  1  0
  6  7  1  0
  7  8  1  0
  8  9  2  0
  9 10  1  0
 10 11  2  0
 11 12  1  0
 11 13  1  0
 13 14  2  0
 13 15  1  0
 15 16  1  0
  9  3  1  0
 14  8  1  0
  1 17  1  0
  1 18  1  0
  1 19  1  0
  2 20  1  0
  2 21  1  0
  3 22  1  0
  4 23  1  0
  4 24  1  0
  5 25  1  0
  6 26  1  0
  6 27  1  0
  7 28  1  0
  7 29  1  0
 10 30  1  0
 14 31  1  0
 16 32  1  0
 16 33  1  0
 16 34  1  0
M  END
>  <Ligand ID>  (1) 
LIG0004132

>  <Ligand>  (1) 
CHEMBL426235

>  <SMILES>  (1) 
CCC1CNCCc2c1cc(Br)c(c2)OC

>  <CID>  (1) 
9994008.0

>  <ChEMBL ID>  (1) 
nan

>  <InChiKey>  (1) 
QSLHEIFNJPYBLS-UHFFFAOYSA-N

>  <InChi>  (1) 
InChI=1S/C13H18BrNO/c1-3-9-8-15-5-4-10-6-13(16-2)12(14)7-11(9)10/h6-7,9,15H,3-5,8H2,1-2H3

>  <IUPAC Name>  (1) 
7-bromo-5-ethyl-8-methoxy-2,3,4,5-tetrahydro-1H-3-benzazepine

$$$$
