
     RDKit          3D

 68 71  0  0  0  0  0  0  0  0999 V2000
    6.1646   -0.8263   -1.0133 O   0  0  0  0  0  0  0  0  0  0  0  0
    5.7105   -0.0283    0.0093 C   0  0  2  0  0  0  0  0  0  0  0  0
    6.4014   -0.2047    1.3382 C   0  0  0  0  0  0  0  0  0  0  0  0
    7.7212    0.0224    1.4340 O   0  0  0  0  0  0  0  0  0  0  0  0
    8.8395   -0.5128    0.9366 C   0  0  0  0  0  0  0  0  0  0  0  0
   10.0475    0.1248    1.3205 C   0  0  0  0  0  0  0  0  0  0  0  0
   11.2706   -0.3077    0.8949 C   0  0  0  0  0  0  0  0  0  0  0  0
   11.3950   -1.3867    0.0691 C   0  0  0  0  0  0  0  0  0  0  0  0
   10.2541   -2.0362   -0.3289 C   0  0  0  0  0  0  0  0  0  0  0  0
    9.0011   -1.5865    0.1136 C   0  0  0  0  0  0  0  0  0  0  0  0
    4.2177   -0.2531    0.2451 C   0  0  0  0  0  0  0  0  0  0  0  0
    3.4648    0.0522   -0.9560 N   0  0  0  0  0  0  0  0  0  0  0  0
    3.4313    1.4314   -1.3097 C   0  0  0  0  0  0  0  0  0  0  0  0
    2.5863    2.2789   -0.3423 C   0  0  0  0  0  0  0  0  0  0  0  0
    1.2076    1.6833   -0.4742 C   0  0  0  0  0  0  0  0  0  0  0  0
    0.7454    0.6704    0.3175 C   0  0  0  0  0  0  0  0  0  0  0  0
   -0.5401    0.2016    0.0747 C   0  0  0  0  0  0  0  0  0  0  0  0
   -1.3333    0.7253   -0.9217 C   0  0  0  0  0  0  0  0  0  0  0  0
   -0.8207    1.7615   -1.7074 C   0  0  0  0  0  0  0  0  0  0  0  0
    0.4417    2.2521   -1.5005 C   0  0  0  0  0  0  0  0  0  0  0  0
   -2.6397    0.3064   -1.2265 N   0  0  0  0  0  0  0  0  0  0  0  0
   -3.8279    0.8373   -0.7111 C   0  0  0  0  0  0  0  0  0  0  0  0
   -3.7834    1.7734    0.1086 O   0  0  0  0  0  0  0  0  0  0  0  0
   -5.1872    0.3411   -1.0945 C   0  0  0  0  0  0  0  0  0  0  0  0
   -6.1888    1.1565   -0.3776 C   0  0  0  0  0  0  0  0  0  0  0  0
   -6.5550    2.3906   -0.8076 N   0  0  0  0  0  0  0  0  0  0  0  0
   -7.4744    2.8738    0.0316 C   0  0  0  0  0  0  0  0  0  0  0  0
   -7.6644    1.9049    0.9890 C   0  0  0  0  0  0  0  0  0  0  0  0
   -6.8670    0.8497    0.7276 N   0  0  0  0  0  0  0  0  0  0  0  0
   -6.8523   -0.3370    1.5557 C   0  0  0  0  0  0  0  0  0  0  0  0
   -7.8713   -1.3262    1.0712 C   0  0  0  0  0  0  0  0  0  0  0  0
   -9.1733   -1.1278    1.4579 C   0  0  0  0  0  0  0  0  0  0  0  0
  -10.1851   -1.9736    1.0703 C   0  0  0  0  0  0  0  0  0  0  0  0
   -9.8610   -3.0511    0.2671 C   0  0  0  0  0  0  0  0  0  0  0  0
   -8.5494   -3.2618   -0.1291 C   0  0  0  0  0  0  0  0  0  0  0  0
   -7.5498   -2.3958    0.2745 C   0  0  0  0  0  0  0  0  0  0  0  0
  -11.2476   -4.2142   -0.2706 Br  0  0  0  0  0  0  0  0  0  0  0  0
    5.3930   -1.1517   -1.5200 H   0  0  0  0  0  0  0  0  0  0  0  0
    5.8793    1.0331   -0.3490 H   0  0  0  0  0  0  0  0  0  0  0  0
    6.0886   -1.2299    1.7519 H   0  0  0  0  0  0  0  0  0  0  0  0
    5.8515    0.4940    2.0657 H   0  0  0  0  0  0  0  0  0  0  0  0
   10.0263    0.9877    1.9741 H   0  0  0  0  0  0  0  0  0  0  0  0
   12.1731    0.1934    1.2030 H   0  0  0  0  0  0  0  0  0  0  0  0
   12.3323   -1.7677   -0.2958 H   0  0  0  0  0  0  0  0  0  0  0  0
   10.3314   -2.9003   -0.9892 H   0  0  0  0  0  0  0  0  0  0  0  0
    8.1731   -2.1640   -0.2219 H   0  0  0  0  0  0  0  0  0  0  0  0
    3.8314    0.3026    1.1114 H   0  0  0  0  0  0  0  0  0  0  0  0
    4.0901   -1.3322    0.4516 H   0  0  0  0  0  0  0  0  0  0  0  0
    2.5641   -0.4319   -1.0030 H   0  0  0  0  0  0  0  0  0  0  0  0
    2.9010    1.5191   -2.2826 H   0  0  0  0  0  0  0  0  0  0  0  0
    4.3910    1.9312   -1.3643 H   0  0  0  0  0  0  0  0  0  0  0  0
    2.6119    3.3102   -0.6939 H   0  0  0  0  0  0  0  0  0  0  0  0
    2.9543    2.1038    0.6697 H   0  0  0  0  0  0  0  0  0  0  0  0
    1.3774    0.2734    1.0893 H   0  0  0  0  0  0  0  0  0  0  0  0
   -0.9494   -0.6013    0.6773 H   0  0  0  0  0  0  0  0  0  0  0  0
   -1.4341    2.1959   -2.5075 H   0  0  0  0  0  0  0  0  0  0  0  0
    0.8201    3.0538   -2.1200 H   0  0  0  0  0  0  0  0  0  0  0  0
   -2.7294   -0.4914   -1.9144 H   0  0  0  0  0  0  0  0  0  0  0  0
   -5.3218    0.4974   -2.1942 H   0  0  0  0  0  0  0  0  0  0  0  0
   -5.2867   -0.7198   -0.8634 H   0  0  0  0  0  0  0  0  0  0  0  0
   -7.9281    3.8462   -0.0922 H   0  0  0  0  0  0  0  0  0  0  0  0
   -8.3643    2.0297    1.8060 H   0  0  0  0  0  0  0  0  0  0  0  0
   -7.0846   -0.1249    2.6155 H   0  0  0  0  0  0  0  0  0  0  0  0
   -5.8822   -0.8761    1.5380 H   0  0  0  0  0  0  0  0  0  0  0  0
   -9.4220   -0.2809    2.0883 H   0  0  0  0  0  0  0  0  0  0  0  0
  -11.1986   -1.8232    1.3673 H   0  0  0  0  0  0  0  0  0  0  0  0
   -8.3710   -4.1183   -0.7533 H   0  0  0  0  0  0  0  0  0  0  0  0
   -6.5461   -2.5658   -0.0329 H   0  0  0  0  0  0  0  0  0  0  0  0
  1  2  1  0
  2  3  1  0
  3  4  1  0
  4  5  1  0
  5  6  2  0
  6  7  1  0
  7  8  2  0
  8  9  1  0
  9 10  2  0
  2 11  1  0
 11 12  1  0
 12 13  1  0
 13 14  1  0
 14 15  1  0
 15 16  2  0
 16 17  1  0
 17 18  2  0
 18 19  1  0
 19 20  2  0
 18 21  1  0
 21 22  1  0
 22 23  2  0
 22 24  1  0
 24 25  1  0
 25 26  2  0
 26 27  1  0
 27 28  2  0
 28 29  1  0
 29 30  1  0
 30 31  1  0
 31 32  2  0
 32 33  1  0
 33 34  2  0
 34 35  1  0
 35 36  2  0
 34 37  1  0
 10  5  1  0
 20 15  1  0
 29 25  1  0
 36 31  1  0
  1 38  1  0
  2 39  1  6
  3 40  1  0
  3 41  1  0
  6 42  1  0
  7 43  1  0
  8 44  1  0
  9 45  1  0
 10 46  1  0
 11 47  1  0
 11 48  1  0
 12 49  1  0
 13 50  1  0
 13 51  1  0
 14 52  1  0
 14 53  1  0
 16 54  1  0
 17 55  1  0
 19 56  1  0
 20 57  1  0
 21 58  1  0
 24 59  1  0
 24 60  1  0
 27 61  1  0
 28 62  1  0
 30 63  1  0
 30 64  1  0
 32 65  1  0
 33 66  1  0
 35 67  1  0
 36 68  1  0
M  END
>  <Ligand ID>  (1) 
LIG0002726

>  <Ligand>  (1) 
CHEMBL467102

>  <SMILES>  (1) 
O[C@H](COc1ccccc1)CNCCc1ccc(cc1)NC(=O)Cc1nccn1Cc1ccc(cc1)Br

>  <CID>  (1) 
44574867.0

>  <ChEMBL ID>  (1) 
nan

>  <InChiKey>  (1) 
WQVVILMKQWJJNF-SANMLTNESA-N

>  <InChi>  (1) 
InChI=1S/C29H31BrN4O3/c30-24-10-6-23(7-11-24)20-34-17-16-32-28(34)18-29(36)33-25-12-8-22(9-13-25)14-15-31-19-26(35)21-37-27-4-2-1-3-5-27/h1-13,16-17,26,31,35H,14-15,18-21H2,(H,33,36)/t26-/m0/s1

>  <IUPAC Name>  (1) 
2-[1-[(4-bromophenyl)methyl]imidazol-2-yl]-N-[4-[2-[[(2S)-2-hydroxy-3-phenoxypropyl]amino]ethyl]phenyl]acetamide

$$$$
