
     RDKit          3D

 17 16  0  0  0  0  0  0  0  0999 V2000
   -3.2076    0.1132    0.2759 C   0  0  0  0  0  0  0  0  0  0  0  0
   -1.8868   -0.5637    0.0525 C   0  0  0  0  0  0  0  0  0  0  0  0
   -0.9920    0.2085   -0.9300 C   0  0  0  0  0  0  0  0  0  0  0  0
    0.5243   -0.8207   -1.0186 S   0  0  0  0  0  0  0  0  0  0  0  0
    1.3501   -0.6646    0.9418 S   0  0  0  0  0  0  0  0  0  0  0  0
    2.6417    1.0444    0.7844 S   0  0  0  0  0  0  0  0  0  0  0  0
    4.2504    0.3247    0.2683 C   0  0  0  0  0  0  0  0  0  0  0  0
   -3.2789    0.5806    1.2893 H   0  0  0  0  0  0  0  0  0  0  0  0
   -4.0283   -0.6346    0.1871 H   0  0  0  0  0  0  0  0  0  0  0  0
   -3.3083    0.9394   -0.4551 H   0  0  0  0  0  0  0  0  0  0  0  0
   -2.0409   -1.6198   -0.2968 H   0  0  0  0  0  0  0  0  0  0  0  0
   -1.3519   -0.6717    1.0378 H   0  0  0  0  0  0  0  0  0  0  0  0
   -0.7935    1.1856   -0.4871 H   0  0  0  0  0  0  0  0  0  0  0  0
   -1.4973    0.2367   -1.9154 H   0  0  0  0  0  0  0  0  0  0  0  0
    4.5078   -0.4282    1.0660 H   0  0  0  0  0  0  0  0  0  0  0  0
    5.0263    1.0717    0.1198 H   0  0  0  0  0  0  0  0  0  0  0  0
    4.0850   -0.3017   -0.6387 H   0  0  0  0  0  0  0  0  0  0  0  0
  1  2  1  0
  2  3  1  0
  3  4  1  0
  4  5  1  0
  5  6  1  0
  6  7  1  0
  1  8  1  0
  1  9  1  0
  1 10  1  0
  2 11  1  0
  2 12  1  0
  3 13  1  0
  3 14  1  0
  7 15  1  0
  7 16  1  0
  7 17  1  0
M  END
>  <Ligand ID>  (1) 
LIG0000556

>  <Ligand>  (1) 
Methyl propyl trisulfide

>  <SMILES>  (1) 
CCCSSSC

>  <CID>  (1) 
5319765.0

>  <ChEMBL ID>  (1) 
nan

>  <InChiKey>  (1) 
ZOYASYRPGHCQHW-UHFFFAOYSA-N

>  <InChi>  (1) 
InChI=1S/C4H10S3/c1-3-4-6-7-5-2/h3-4H2,1-2H3

>  <IUPAC Name>  (1) 
1-(methyltrisulfanyl)propane

$$$$
