
     RDKit          3D

 57 60  0  0  0  0  0  0  0  0999 V2000
   -2.7864   -1.8464   -0.2878 O   0  0  0  0  0  0  0  0  0  0  0  0
   -2.1634   -1.1061   -1.2446 C   0  0  0  0  0  0  0  0  0  0  0  0
   -1.3931    0.0978   -0.7736 C   0  0  0  0  0  0  0  0  0  0  0  0
   -0.3251   -0.3020    0.2252 C   0  0  0  0  0  0  0  0  0  0  0  0
    1.0515    0.2637   -0.0626 C   0  0  0  0  0  0  0  0  0  0  0  0
    1.5066   -0.2514   -1.2741 N   0  0  0  0  0  0  0  0  0  0  0  0
    0.5268   -0.3797   -2.3148 C   0  0  0  0  0  0  0  0  0  0  0  0
   -0.5916    0.5364   -2.0376 C   0  0  0  0  0  0  0  0  0  0  0  0
    2.8543   -0.3198   -1.6394 C   0  0  0  0  0  0  0  0  0  0  0  0
    3.6297   -1.0524   -0.6039 C   0  0  0  0  0  0  0  0  0  0  0  0
    3.7611   -2.4424   -0.7592 C   0  0  0  0  0  0  0  0  0  0  0  0
    4.4093   -3.2184    0.1782 C   0  0  0  0  0  0  0  0  0  0  0  0
    4.5083   -4.5516   -0.0262 F   0  0  0  0  0  0  0  0  0  0  0  0
    4.9439   -2.5951    1.3052 C   0  0  0  0  0  0  0  0  0  0  0  0
    4.8267   -1.2194    1.4782 C   0  0  0  0  0  0  0  0  0  0  0  0
    4.1651   -0.4512    0.5134 C   0  0  0  0  0  0  0  0  0  0  0  0
    4.1349    0.9479    0.7490 N   0  0  0  0  0  0  0  0  0  0  0  0
    4.8395    1.8171   -0.0275 C   0  0  0  0  0  0  0  0  0  0  0  0
    4.6295    3.0990    0.4365 C   0  0  0  0  0  0  0  0  0  0  0  0
    3.7746    2.9812    1.5200 C   0  0  0  0  0  0  0  0  0  0  0  0
    3.5118    1.6668    1.6592 N   0  0  0  0  0  0  0  0  0  0  0  0
   -2.1271    1.3092   -0.4044 C   0  0  0  0  0  0  0  0  0  0  0  0
   -3.0954    1.4650    0.6592 C   0  0  0  0  0  0  0  0  0  0  0  0
   -4.3232    0.7003    0.6999 C   0  0  0  0  0  0  0  0  0  0  0  0
   -5.3786    1.0967   -0.1217 C   0  0  0  0  0  0  0  0  0  0  0  0
   -6.6087    0.4715   -0.0835 C   0  0  0  0  0  0  0  0  0  0  0  0
   -6.8423   -0.5890    0.7865 C   0  0  0  0  0  0  0  0  0  0  0  0
   -5.8161   -0.9977    1.6062 C   0  0  0  0  0  0  0  0  0  0  0  0
   -4.6056   -0.3552    1.5440 C   0  0  0  0  0  0  0  0  0  0  0  0
   -2.3243   -1.8726    0.5821 H   0  0  0  0  0  0  0  0  0  0  0  0
   -2.8662   -0.7457   -2.0404 H   0  0  0  0  0  0  0  0  0  0  0  0
   -1.4984   -1.8238   -1.8070 H   0  0  0  0  0  0  0  0  0  0  0  0
   -0.6247    0.1170    1.2257 H   0  0  0  0  0  0  0  0  0  0  0  0
   -0.2249   -1.3946    0.3542 H   0  0  0  0  0  0  0  0  0  0  0  0
    1.6887   -0.2133    0.7553 H   0  0  0  0  0  0  0  0  0  0  0  0
    1.1071    1.3383    0.0799 H   0  0  0  0  0  0  0  0  0  0  0  0
    0.9974   -0.0710   -3.3047 H   0  0  0  0  0  0  0  0  0  0  0  0
    0.3179   -1.4393   -2.4448 H   0  0  0  0  0  0  0  0  0  0  0  0
   -0.1887    1.5427   -1.8092 H   0  0  0  0  0  0  0  0  0  0  0  0
   -1.3053    0.6074   -2.8985 H   0  0  0  0  0  0  0  0  0  0  0  0
    2.9494   -0.9315   -2.5875 H   0  0  0  0  0  0  0  0  0  0  0  0
    3.3229    0.6724   -1.8592 H   0  0  0  0  0  0  0  0  0  0  0  0
    3.3264   -2.8960   -1.6632 H   0  0  0  0  0  0  0  0  0  0  0  0
    5.4373   -3.2336    2.0091 H   0  0  0  0  0  0  0  0  0  0  0  0
    5.2515   -0.7384    2.3707 H   0  0  0  0  0  0  0  0  0  0  0  0
    5.4754    1.5644   -0.8906 H   0  0  0  0  0  0  0  0  0  0  0  0
    5.0261    4.0303    0.0690 H   0  0  0  0  0  0  0  0  0  0  0  0
    3.3660    3.7477    2.1637 H   0  0  0  0  0  0  0  0  0  0  0  0
   -1.3290    2.1276   -0.3168 H   0  0  0  0  0  0  0  0  0  0  0  0
   -2.6372    1.6447   -1.3919 H   0  0  0  0  0  0  0  0  0  0  0  0
   -3.4480    2.5644    0.6116 H   0  0  0  0  0  0  0  0  0  0  0  0
   -2.6104    1.4809    1.6961 H   0  0  0  0  0  0  0  0  0  0  0  0
   -5.2445    1.9245   -0.8260 H   0  0  0  0  0  0  0  0  0  0  0  0
   -7.3948    0.8350   -0.7612 H   0  0  0  0  0  0  0  0  0  0  0  0
   -7.8026   -1.0821    0.8209 H   0  0  0  0  0  0  0  0  0  0  0  0
   -5.9877   -1.8324    2.2959 H   0  0  0  0  0  0  0  0  0  0  0  0
   -3.7962   -0.6977    2.2083 H   0  0  0  0  0  0  0  0  0  0  0  0
  1  2  1  0
  2  3  1  0
  3  4  1  0
  4  5  1  0
  5  6  1  0
  6  7  1  0
  7  8  1  0
  6  9  1  0
  9 10  1  0
 10 11  2  0
 11 12  1  0
 12 13  1  0
 12 14  2  0
 14 15  1  0
 15 16  2  0
 16 17  1  0
 17 18  1  0
 18 19  2  0
 19 20  1  0
 20 21  2  0
  3 22  1  0
 22 23  1  0
 23 24  1  0
 24 25  2  0
 25 26  1  0
 26 27  2  0
 27 28  1  0
 28 29  2  0
  8  3  1  0
 16 10  1  0
 21 17  1  0
 29 24  1  0
  1 30  1  0
  2 31  1  0
  2 32  1  0
  4 33  1  0
  4 34  1  0
  5 35  1  0
  5 36  1  0
  7 37  1  0
  7 38  1  0
  8 39  1  0
  8 40  1  0
  9 41  1  0
  9 42  1  0
 11 43  1  0
 14 44  1  0
 15 45  1  0
 18 46  1  0
 19 47  1  0
 20 48  1  0
 22 49  1  0
 22 50  1  0
 23 51  1  0
 23 52  1  0
 25 53  1  0
 26 54  1  0
 27 55  1  0
 28 56  1  0
 29 57  1  0
M  END
>  <Ligand ID>  (1) 
LIG0003130

>  <Ligand>  (1) 
MLS000732258

>  <SMILES>  (1) 
OCC1(CCN(CC1)Cc1cc(F)ccc1n1cccn1)CCc1ccccc1

>  <CID>  (1) 
16191931.0

>  <ChEMBL ID>  (1) 
nan

>  <InChiKey>  (1) 
YBUUWIMATLDIMS-UHFFFAOYSA-N

>  <InChi>  (1) 
InChI=1S/C24H28FN3O/c25-22-7-8-23(28-14-4-13-26-28)21(17-22)18-27-15-11-24(19-29,12-16-27)10-9-20-5-2-1-3-6-20/h1-8,13-14,17,29H,9-12,15-16,18-19H2

>  <IUPAC Name>  (1) 
[1-[(5-fluoro-2-pyrazol-1-ylphenyl)methyl]-4-(2-phenylethyl)piperidin-4-yl]methanol

$$$$
