
     RDKit          3D

 49 52  0  0  0  0  0  0  0  0999 V2000
    7.1534   -0.6080   -2.4935 F   0  0  0  0  0  0  0  0  0  0  0  0
    6.3395   -0.7820   -1.4290 C   0  0  0  0  0  0  0  0  0  0  0  0
    6.8683   -0.8334   -0.1615 C   0  0  0  0  0  0  0  0  0  0  0  0
    5.9892   -1.0135    0.8796 C   0  0  0  0  0  0  0  0  0  0  0  0
    4.6102   -1.1419    0.6843 C   0  0  0  0  0  0  0  0  0  0  0  0
    4.0795   -1.0898   -0.5723 C   0  0  0  0  0  0  0  0  0  0  0  0
    4.9875   -0.9064   -1.6262 C   0  0  0  0  0  0  0  0  0  0  0  0
    2.6639   -1.1525   -0.9498 C   0  0  0  0  0  0  0  0  0  0  0  0
    1.9315   -0.0225   -0.9867 O   0  0  0  0  0  0  0  0  0  0  0  0
    1.7607    0.6753    0.1310 C   0  0  1  0  0  0  0  0  0  0  0  0
    2.2662    2.1222    0.0302 C   0  0  0  0  0  0  0  0  0  0  0  0
    1.5644    2.6959    1.2730 C   0  0  0  0  0  0  0  0  0  0  0  0
    0.1743    2.1446    1.0959 C   0  0  0  0  0  0  0  0  0  0  0  0
    0.2870    0.9568    0.4123 C   0  0  0  0  0  0  0  0  0  0  0  0
   -0.7977    0.2220    0.0936 N   0  0  0  0  0  0  0  0  0  0  0  0
   -2.0415    0.6150    0.4287 C   0  0  0  0  0  0  0  0  0  0  0  0
   -2.1867    1.8010    1.1148 C   0  0  0  0  0  0  0  0  0  0  0  0
   -1.0851    2.5911    1.4634 C   0  0  0  0  0  0  0  0  0  0  0  0
   -3.1315   -0.2143    0.0526 N   0  0  0  0  0  0  0  0  0  0  0  0
   -2.9030   -1.4141   -0.7130 C   0  0  0  0  0  0  0  0  0  0  0  0
   -3.8501   -1.5479   -1.8779 C   0  0  0  0  0  0  0  0  0  0  0  0
   -4.8276   -0.4645   -1.8672 N   0  0  0  0  0  0  0  0  0  0  0  0
   -5.4767   -0.5457   -0.5621 C   0  0  0  0  0  0  0  0  0  0  0  0
   -4.5077    0.0982    0.4167 C   0  0  1  0  0  0  0  0  0  0  0  0
   -4.8121   -0.4890    1.7969 C   0  0  0  0  0  0  0  0  0  0  0  0
    3.8823   -1.3630    1.7830 F   0  0  0  0  0  0  0  0  0  0  0  0
    7.9272   -0.7380    0.0387 H   0  0  0  0  0  0  0  0  0  0  0  0
    6.4119   -1.0544    1.8740 H   0  0  0  0  0  0  0  0  0  0  0  0
    4.6239   -0.8572   -2.6645 H   0  0  0  0  0  0  0  0  0  0  0  0
    2.6102   -1.7450   -1.9089 H   0  0  0  0  0  0  0  0  0  0  0  0
    2.1733   -1.8472   -0.1738 H   0  0  0  0  0  0  0  0  0  0  0  0
    2.2108    0.3024    1.0626 H   0  0  0  0  0  0  0  0  0  0  0  0
    3.3523    2.2023    0.1233 H   0  0  0  0  0  0  0  0  0  0  0  0
    1.8550    2.5637   -0.8940 H   0  0  0  0  0  0  0  0  0  0  0  0
    2.0377    2.3193    2.1792 H   0  0  0  0  0  0  0  0  0  0  0  0
    1.5964    3.7957    1.1399 H   0  0  0  0  0  0  0  0  0  0  0  0
   -3.1634    2.1164    1.3824 H   0  0  0  0  0  0  0  0  0  0  0  0
   -1.2115    3.5032    1.9933 H   0  0  0  0  0  0  0  0  0  0  0  0
   -1.8709   -1.3827   -1.1228 H   0  0  0  0  0  0  0  0  0  0  0  0
   -2.9278   -2.3448   -0.0937 H   0  0  0  0  0  0  0  0  0  0  0  0
   -3.3236   -1.5023   -2.8353 H   0  0  0  0  0  0  0  0  0  0  0  0
   -4.3937   -2.5075   -1.7898 H   0  0  0  0  0  0  0  0  0  0  0  0
   -5.4708   -0.5669   -2.6613 H   0  0  0  0  0  0  0  0  0  0  0  0
   -6.4104    0.0753   -0.6492 H   0  0  0  0  0  0  0  0  0  0  0  0
   -5.6782   -1.5948   -0.2714 H   0  0  0  0  0  0  0  0  0  0  0  0
   -4.7248    1.1864    0.3765 H   0  0  0  0  0  0  0  0  0  0  0  0
   -5.8424   -0.8876    1.8687 H   0  0  0  0  0  0  0  0  0  0  0  0
   -4.6304    0.2591    2.5960 H   0  0  0  0  0  0  0  0  0  0  0  0
   -4.0888   -1.3278    2.0134 H   0  0  0  0  0  0  0  0  0  0  0  0
  1  2  1  0
  2  3  2  0
  3  4  1  0
  4  5  2  0
  5  6  1  0
  6  7  2  0
  6  8  1  0
  8  9  1  0
  9 10  1  0
 10 11  1  0
 11 12  1  0
 12 13  1  0
 13 14  2  0
 14 15  1  0
 15 16  2  0
 16 17  1  0
 17 18  2  0
 16 19  1  0
 19 20  1  0
 20 21  1  0
 21 22  1  0
 22 23  1  0
 23 24  1  0
 24 25  1  0
  5 26  1  0
  7  2  1  0
 14 10  1  0
 24 19  1  0
 18 13  1  0
  3 27  1  0
  4 28  1  0
  7 29  1  0
  8 30  1  0
  8 31  1  0
 10 32  1  1
 11 33  1  0
 11 34  1  0
 12 35  1  0
 12 36  1  0
 17 37  1  0
 18 38  1  0
 20 39  1  0
 20 40  1  0
 21 41  1  0
 21 42  1  0
 22 43  1  0
 23 44  1  0
 23 45  1  0
 24 46  1  1
 25 47  1  0
 25 48  1  0
 25 49  1  0
M  END
>  <Ligand ID>  (1) 
LIG0005331

>  <Ligand>  (1) 
CHEMBL595645

>  <SMILES>  (1) 
Fc1ccc(c(c1)CO[C@H]1CCc2c1nc(cc2)N1CCNC[C@H]1C)F

>  <CID>  (1) 
11949706.0

>  <ChEMBL ID>  (1) 
nan

>  <InChiKey>  (1) 
YNTPOJIODZIOEU-ACJLOTCBSA-N

>  <InChi>  (1) 
InChI=1S/C20H23F2N3O/c1-13-11-23-8-9-25(13)19-7-3-14-2-6-18(20(14)24-19)26-12-15-10-16(21)4-5-17(15)22/h3-5,7,10,13,18,23H,2,6,8-9,11-12H2,1H3/t13-,18+/m1/s1

>  <IUPAC Name>  (1) 
(7S)-7-[(2,5-difluorophenyl)methoxy]-2-[(2R)-2-methylpiperazin-1-yl]-6,7-dihydro-5H-cyclopenta[b]pyridine

$$$$
