
     RDKit          3D

 46 46  0  0  0  0  0  0  0  0999 V2000
   -0.0828   -2.8996    1.1194 O   0  0  0  0  0  0  0  0  0  0  0  0
   -0.0884   -2.4878   -0.0914 C   0  0  0  0  0  0  0  0  0  0  0  0
   -1.3854   -2.3893   -0.8601 C   0  0  0  0  0  0  0  0  0  0  0  0
   -2.5333   -2.3695    0.1723 C   0  0  0  0  0  0  0  0  0  0  0  0
   -2.4791   -1.1912    1.0447 C   0  0  0  0  0  0  0  0  0  0  0  0
   -2.9113    0.1427    0.6642 C   0  0  0  0  0  0  0  0  0  0  0  0
   -2.5667    0.8275   -0.5880 C   0  0  0  0  0  0  0  0  0  0  0  0
   -2.8927    2.3454   -0.3515 C   0  0  0  0  0  0  0  0  0  0  0  0
   -1.6456    2.7987    0.4454 C   0  0  0  0  0  0  0  0  0  0  0  0
   -0.5089    2.9087   -0.5189 C   0  0  0  0  0  0  0  0  0  0  0  0
    0.5567    2.1825   -0.5867 C   0  0  0  0  0  0  0  0  0  0  0  0
    0.9261    1.0456    0.2774 C   0  0  0  0  0  0  0  0  0  0  0  0
    2.2425    1.0316    0.9286 C   0  0  0  0  0  0  0  0  0  0  0  0
    3.4008    0.8971    0.0016 C   0  0  0  0  0  0  0  0  0  0  0  0
    3.4680   -0.2187   -0.9465 C   0  0  0  0  0  0  0  0  0  0  0  0
    3.4944   -1.6276   -0.5128 C   0  0  0  0  0  0  0  0  0  0  0  0
    2.3138   -2.2025    0.1739 C   0  0  0  0  0  0  0  0  0  0  0  0
    1.1345   -2.1400   -0.6112 O   0  0  0  0  0  0  0  0  0  0  0  0
   -1.4263   -3.2959   -1.4901 H   0  0  0  0  0  0  0  0  0  0  0  0
   -1.3978   -1.4968   -1.4998 H   0  0  0  0  0  0  0  0  0  0  0  0
   -2.3668   -3.3028    0.7555 H   0  0  0  0  0  0  0  0  0  0  0  0
   -3.4867   -2.5180   -0.3689 H   0  0  0  0  0  0  0  0  0  0  0  0
   -3.0863   -1.4494    1.9946 H   0  0  0  0  0  0  0  0  0  0  0  0
   -1.4296   -1.1558    1.5124 H   0  0  0  0  0  0  0  0  0  0  0  0
   -2.7120    0.8149    1.5693 H   0  0  0  0  0  0  0  0  0  0  0  0
   -4.0868    0.1793    0.7082 H   0  0  0  0  0  0  0  0  0  0  0  0
   -1.5608    0.8173   -0.9607 H   0  0  0  0  0  0  0  0  0  0  0  0
   -3.3036    0.5110   -1.3898 H   0  0  0  0  0  0  0  0  0  0  0  0
   -2.8866    2.8260   -1.3249 H   0  0  0  0  0  0  0  0  0  0  0  0
   -3.7910    2.4286    0.2454 H   0  0  0  0  0  0  0  0  0  0  0  0
   -1.3680    2.1497    1.2519 H   0  0  0  0  0  0  0  0  0  0  0  0
   -1.8631    3.8305    0.8120 H   0  0  0  0  0  0  0  0  0  0  0  0
   -0.6213    3.7257   -1.2565 H   0  0  0  0  0  0  0  0  0  0  0  0
    1.2887    2.4316   -1.3818 H   0  0  0  0  0  0  0  0  0  0  0  0
    0.7146    0.1639   -0.3660 H   0  0  0  0  0  0  0  0  0  0  0  0
    0.1642    0.9341    1.1193 H   0  0  0  0  0  0  0  0  0  0  0  0
    2.3392    0.3903    1.8164 H   0  0  0  0  0  0  0  0  0  0  0  0
    2.3665    2.0831    1.3755 H   0  0  0  0  0  0  0  0  0  0  0  0
    4.3092    0.7955    0.6779 H   0  0  0  0  0  0  0  0  0  0  0  0
    3.6265    1.8619   -0.5387 H   0  0  0  0  0  0  0  0  0  0  0  0
    2.7559   -0.0828   -1.8287 H   0  0  0  0  0  0  0  0  0  0  0  0
    4.4668   -0.0749   -1.4951 H   0  0  0  0  0  0  0  0  0  0  0  0
    4.3781   -1.7490    0.1859 H   0  0  0  0  0  0  0  0  0  0  0  0
    3.7827   -2.3119   -1.3717 H   0  0  0  0  0  0  0  0  0  0  0  0
    2.5473   -3.3129    0.2947 H   0  0  0  0  0  0  0  0  0  0  0  0
    2.2044   -1.8469    1.1935 H   0  0  0  0  0  0  0  0  0  0  0  0
  1  2  2  0
  2  3  1  0
  3  4  1  0
  4  5  1  0
  5  6  1  0
  6  7  1  0
  7  8  1  0
  8  9  1  0
  9 10  1  0
 10 11  2  0
 11 12  1  0
 12 13  1  0
 13 14  1  0
 14 15  1  0
 15 16  1  0
 16 17  1  0
 17 18  1  0
 18  2  1  0
  3 19  1  0
  3 20  1  0
  4 21  1  0
  4 22  1  0
  5 23  1  0
  5 24  1  0
  6 25  1  0
  6 26  1  0
  7 27  1  0
  7 28  1  0
  8 29  1  0
  8 30  1  0
  9 31  1  0
  9 32  1  0
 10 33  1  0
 11 34  1  0
 12 35  1  0
 12 36  1  0
 13 37  1  0
 13 38  1  0
 14 39  1  0
 14 40  1  0
 15 41  1  0
 15 42  1  0
 16 43  1  0
 16 44  1  0
 17 45  1  0
 17 46  1  0
M  END
>  <Ligand ID>  (1) 
LIG0002094

>  <Ligand>  (1) 
Isoambrettolide

>  <SMILES>  (1) 
O=C1CCCCCCC/C=C\CCCCCCO1

>  <CID>  (1) 
5355293.0

>  <ChEMBL ID>  (1) 
nan

>  <InChiKey>  (1) 
QILMAYXCYBTEDM-IWQZZHSRSA-N

>  <InChi>  (1) 
InChI=1S/C16H28O2/c17-16-14-12-10-8-6-4-2-1-3-5-7-9-11-13-15-18-16/h1,3H,2,4-15H2/b3-1-

>  <IUPAC Name>  (1) 
(10Z)-1-oxacycloheptadec-10-en-2-one

$$$$
