
     RDKit          3D

 37 39  0  0  0  0  0  0  0  0999 V2000
   -1.2779   -3.4004   -0.7790 N   0  0  0  0  0  0  0  0  0  0  0  0
   -1.0730   -2.4317   -1.8224 C   0  0  0  0  0  0  0  0  0  0  0  0
   -0.6630   -1.0797   -1.3437 C   0  0  2  0  0  0  0  0  0  0  0  0
    0.5537   -1.1192   -0.6242 O   0  0  0  0  0  0  0  0  0  0  0  0
    0.8690    0.2079   -0.3657 C   0  0  0  0  0  0  0  0  0  0  0  0
    0.0587    0.6524    0.8327 C   0  0  0  0  0  0  0  0  0  0  0  0
   -1.3578    0.4992    0.4709 C   0  0  0  0  0  0  0  0  0  0  0  0
   -1.6833   -0.3469   -0.5887 C   0  0  0  0  0  0  0  0  0  0  0  0
   -3.0181   -0.4616   -0.8939 C   0  0  0  0  0  0  0  0  0  0  0  0
   -3.9877    0.2348   -0.1765 C   0  0  0  0  0  0  0  0  0  0  0  0
   -3.6405    1.0664    0.8686 C   0  0  0  0  0  0  0  0  0  0  0  0
   -2.3073    1.1894    1.1834 C   0  0  0  0  0  0  0  0  0  0  0  0
   -1.9049    2.0257    2.2409 O   0  0  0  0  0  0  0  0  0  0  0  0
   -4.5837    1.7701    1.5981 O   0  0  0  0  0  0  0  0  0  0  0  0
    2.2977    0.4460   -0.0689 C   0  0  0  0  0  0  0  0  0  0  0  0
    2.9477   -0.4068    0.7990 C   0  0  0  0  0  0  0  0  0  0  0  0
    4.2890   -0.1657    1.0641 C   0  0  0  0  0  0  0  0  0  0  0  0
    4.9152    0.9045    0.4578 C   0  0  0  0  0  0  0  0  0  0  0  0
    4.2748    1.7633   -0.4115 C   0  0  0  0  0  0  0  0  0  0  0  0
    2.9264    1.5206   -0.6779 C   0  0  0  0  0  0  0  0  0  0  0  0
   -2.1702   -3.2364   -0.2786 H   0  0  0  0  0  0  0  0  0  0  0  0
   -0.4538   -3.5106   -0.1808 H   0  0  0  0  0  0  0  0  0  0  0  0
   -1.9535   -2.3234   -2.4552 H   0  0  0  0  0  0  0  0  0  0  0  0
   -0.2520   -2.7924   -2.4923 H   0  0  0  0  0  0  0  0  0  0  0  0
   -0.4086   -0.4870   -2.2600 H   0  0  0  0  0  0  0  0  0  0  0  0
    0.5384    0.8139   -1.2278 H   0  0  0  0  0  0  0  0  0  0  0  0
    0.2824   -0.0223    1.6897 H   0  0  0  0  0  0  0  0  0  0  0  0
    0.3692    1.6884    1.0696 H   0  0  0  0  0  0  0  0  0  0  0  0
   -3.3811   -1.0840   -1.6888 H   0  0  0  0  0  0  0  0  0  0  0  0
   -5.0472    0.1234   -0.4432 H   0  0  0  0  0  0  0  0  0  0  0  0
   -1.2787    1.5744    2.9196 H   0  0  0  0  0  0  0  0  0  0  0  0
   -4.3292    2.5559    2.1509 H   0  0  0  0  0  0  0  0  0  0  0  0
    2.4776   -1.2491    1.2838 H   0  0  0  0  0  0  0  0  0  0  0  0
    4.8516   -0.8047    1.7397 H   0  0  0  0  0  0  0  0  0  0  0  0
    5.9648    1.1167    0.6474 H   0  0  0  0  0  0  0  0  0  0  0  0
    4.7910    2.6031   -0.8789 H   0  0  0  0  0  0  0  0  0  0  0  0
    2.3643    2.1658   -1.3580 H   0  0  0  0  0  0  0  0  0  0  0  0
  1  2  1  0
  2  3  1  0
  3  4  1  0
  4  5  1  0
  5  6  1  0
  6  7  1  0
  7  8  2  0
  8  9  1  0
  9 10  2  0
 10 11  1  0
 11 12  2  0
 12 13  1  0
 11 14  1  0
  5 15  1  0
 15 16  2  0
 16 17  1  0
 17 18  2  0
 18 19  1  0
 19 20  2  0
  8  3  1  0
 20 15  1  0
 12  7  1  0
  1 21  1  0
  1 22  1  0
  2 23  1  0
  2 24  1  0
  3 25  1  6
  5 26  1  0
  6 27  1  0
  6 28  1  0
  9 29  1  0
 10 30  1  0
 13 31  1  0
 14 32  1  0
 16 33  1  0
 17 34  1  0
 18 35  1  0
 19 36  1  0
 20 37  1  0
M  END
>  <Ligand ID>  (1) 
LIG0002876

>  <Ligand>  (1) 
CHEMBL315468

>  <SMILES>  (1) 
NC[C@@H]1OC(Cc2c1ccc(c2O)O)c1ccccc1

>  <CID>  (1) 
14809027.0

>  <ChEMBL ID>  (1) 
nan

>  <InChiKey>  (1) 
SUHGRZPINGKYNV-LOACHALJSA-N

>  <InChi>  (1) 
InChI=1S/C16H17NO3/c17-9-15-11-6-7-13(18)16(19)12(11)8-14(20-15)10-4-2-1-3-5-10/h1-7,14-15,18-19H,8-9,17H2/t14?,15-/m0/s1

>  <IUPAC Name>  (1) 
(1R)-1-(aminomethyl)-3-phenyl-3,4-dihydro-1H-isochromene-5,6-diol

$$$$
