
     RDKit          3D

 51 54  0  0  0  0  0  0  0  0999 V2000
    5.4052   -0.0202   -2.8308 N   0  0  0  0  0  0  0  0  0  0  0  0
    5.9429   -0.1287   -1.8190 C   0  0  0  0  0  0  0  0  0  0  0  0
    6.6182   -0.2436   -0.5400 C   0  0  0  0  0  0  0  0  0  0  0  0
    7.9513    0.0791   -0.3855 C   0  0  0  0  0  0  0  0  0  0  0  0
    8.5825   -0.0328    0.8313 C   0  0  0  0  0  0  0  0  0  0  0  0
    9.9720    0.3252    0.8943 C   0  0  0  0  0  0  0  0  0  0  0  0
   11.0978    0.6329    0.9363 N   0  0  0  0  0  0  0  0  0  0  0  0
    7.8907   -0.4788    1.9536 C   0  0  0  0  0  0  0  0  0  0  0  0
    6.5595   -0.8024    1.8056 C   0  0  0  0  0  0  0  0  0  0  0  0
    5.9225   -0.6918    0.5878 C   0  0  0  0  0  0  0  0  0  0  0  0
    4.4925   -1.0267    0.3818 C   0  0  0  0  0  0  0  0  0  0  0  0
    3.6661    0.1142    0.2799 O   0  0  0  0  0  0  0  0  0  0  0  0
    2.3009   -0.0399    0.0871 C   0  0  0  0  0  0  0  0  0  0  0  0
    1.5216    1.0928   -0.0098 C   0  0  0  0  0  0  0  0  0  0  0  0
    0.2010    0.9595   -0.1959 N   0  0  0  0  0  0  0  0  0  0  0  0
   -0.3765   -0.2242   -0.2893 C   0  0  0  0  0  0  0  0  0  0  0  0
    0.3718   -1.3434   -0.1966 N   0  0  0  0  0  0  0  0  0  0  0  0
    1.7037   -1.2994   -0.0099 C   0  0  0  0  0  0  0  0  0  0  0  0
   -1.7822   -0.3353   -0.4888 N   0  0  0  0  0  0  0  0  0  0  0  0
   -2.4861   -1.5845   -0.5938 C   0  0  0  0  0  0  0  0  0  0  0  0
   -3.8743   -1.5673   -0.0108 C   0  0  0  0  0  0  0  0  0  0  0  0
   -4.6139   -0.3885   -0.4054 N   0  0  0  0  0  0  0  0  0  0  0  0
   -3.9305    0.6012   -1.2112 C   0  0  0  0  0  0  0  0  0  0  0  0
   -2.5830    0.8845   -0.5989 C   0  0  1  0  0  0  0  0  0  0  0  0
   -2.7425    1.6093    0.6988 C   0  0  0  0  0  0  0  0  0  0  0  0
   -5.9664   -0.2028   -0.0190 C   0  0  0  0  0  0  0  0  0  0  0  0
   -6.7543   -1.0055    0.7102 N   0  0  0  0  0  0  0  0  0  0  0  0
   -7.9613   -0.4294    0.8285 N   0  0  0  0  0  0  0  0  0  0  0  0
   -7.8974    0.7347    0.1615 C   0  0  0  0  0  0  0  0  0  0  0  0
   -6.7014    0.8394   -0.3294 O   0  0  0  0  0  0  0  0  0  0  0  0
   -8.9508    1.7734   -0.0316 C   0  0  0  0  0  0  0  0  0  0  0  0
   -8.8513    2.7806    0.9195 F   0  0  0  0  0  0  0  0  0  0  0  0
  -10.2023    1.2221   -0.0110 F   0  0  0  0  0  0  0  0  0  0  0  0
   -8.7733    2.4241   -1.2586 F   0  0  0  0  0  0  0  0  0  0  0  0
    8.4933    0.4279   -1.2645 H   0  0  0  0  0  0  0  0  0  0  0  0
    8.4314   -0.5499    2.8858 H   0  0  0  0  0  0  0  0  0  0  0  0
    6.0064   -1.1476    2.6558 H   0  0  0  0  0  0  0  0  0  0  0  0
    4.1778   -1.7541    1.1405 H   0  0  0  0  0  0  0  0  0  0  0  0
    4.4020   -1.5487   -0.6130 H   0  0  0  0  0  0  0  0  0  0  0  0
    1.9417    2.1036    0.0600 H   0  0  0  0  0  0  0  0  0  0  0  0
    2.3071   -2.1848    0.0651 H   0  0  0  0  0  0  0  0  0  0  0  0
   -1.8936   -2.3935   -0.1267 H   0  0  0  0  0  0  0  0  0  0  0  0
   -2.5182   -1.8195   -1.6908 H   0  0  0  0  0  0  0  0  0  0  0  0
   -3.8512   -1.7252    1.0869 H   0  0  0  0  0  0  0  0  0  0  0  0
   -4.4116   -2.4472   -0.4377 H   0  0  0  0  0  0  0  0  0  0  0  0
   -3.8377    0.1910   -2.2368 H   0  0  0  0  0  0  0  0  0  0  0  0
   -4.5162    1.5376   -1.1557 H   0  0  0  0  0  0  0  0  0  0  0  0
   -2.0631    1.5684   -1.3134 H   0  0  0  0  0  0  0  0  0  0  0  0
   -1.8492    2.2634    0.8872 H   0  0  0  0  0  0  0  0  0  0  0  0
   -2.9616    0.9349    1.5603 H   0  0  0  0  0  0  0  0  0  0  0  0
   -3.6099    2.3157    0.5485 H   0  0  0  0  0  0  0  0  0  0  0  0
  1  2  3  0
  2  3  1  0
  3  4  2  0
  4  5  1  0
  5  6  1  0
  6  7  3  0
  5  8  2  0
  8  9  1  0
  9 10  2  0
 10 11  1  0
 11 12  1  0
 12 13  1  0
 13 14  2  0
 14 15  1  0
 15 16  2  0
 16 17  1  0
 17 18  2  0
 16 19  1  0
 19 20  1  0
 20 21  1  0
 21 22  1  0
 22 23  1  0
 23 24  1  0
 24 25  1  0
 22 26  1  0
 26 27  2  0
 27 28  1  0
 28 29  2  0
 29 30  1  0
 29 31  1  0
 31 32  1  0
 31 33  1  0
 31 34  1  0
 10  3  1  0
 18 13  1  0
 24 19  1  0
 30 26  1  0
  4 35  1  0
  8 36  1  0
  9 37  1  0
 11 38  1  0
 11 39  1  0
 14 40  1  0
 18 41  1  0
 20 42  1  0
 20 43  1  0
 21 44  1  0
 21 45  1  0
 23 46  1  0
 23 47  1  0
 24 48  1  6
 25 49  1  0
 25 50  1  0
 25 51  1  0
M  END
>  <Ligand ID>  (1) 
LIG0005267

>  <Ligand>  (1) 
CHEMBL3357996

>  <SMILES>  (1) 
N#Cc1cc(C#N)ccc1COc1cnc(nc1)N1CCN(C[C@H]1C)c1nnc(o1)C(F)(F)F

>  <CID>  (1) 
118722572.0

>  <ChEMBL ID>  (1) 
nan

>  <InChiKey>  (1) 
XLBVREOEQLOFGF-CYBMUJFWSA-N

>  <InChi>  (1) 
InChI=1S/C21H17F3N8O2/c1-13-11-31(20-30-29-18(34-20)21(22,23)24)4-5-32(13)19-27-9-17(10-28-19)33-12-15-3-2-14(7-25)6-16(15)8-26/h2-3,6,9-10,13H,4-5,11-12H2,1H3/t13-/m1/s1

>  <IUPAC Name>  (1) 
4-[[2-[(2R)-2-methyl-4-[5-(trifluoromethyl)-1,3,4-oxadiazol-2-yl]piperazin-1-yl]pyrimidin-5-yl]oxymethyl]benzene-1,3-dicarbonitrile

$$$$
