
     RDKit          3D

 37 38  0  0  0  0  0  0  0  0999 V2000
   -0.9042    1.6235    1.4451 O   0  0  0  0  0  0  0  0  0  0  0  0
    0.2483    1.8322    0.7190 C   0  0  0  0  0  0  0  0  0  0  0  0
    0.7424    3.0087    0.6492 O   0  0  0  0  0  0  0  0  0  0  0  0
    0.9937    0.7819   -0.0128 C   0  0  1  0  0  0  0  0  0  0  0  0
    2.2564    0.4687    0.7761 C   0  0  0  0  0  0  0  0  0  0  0  0
    2.7193   -0.7905    0.1005 C   0  0  2  0  0  0  0  0  0  0  0  0
    1.4566   -1.4322   -0.3523 C   0  0  0  0  0  0  0  0  0  0  0  0
    0.3413   -0.5135   -0.0167 N   0  0  0  0  0  0  0  0  0  0  0  0
   -0.6283   -0.6432   -1.0909 C   0  0  0  0  0  0  0  0  0  0  0  0
   -1.8851    0.0871   -0.8892 C   0  0  0  0  0  0  0  0  0  0  0  0
   -2.1586    1.3061   -1.5249 C   0  0  0  0  0  0  0  0  0  0  0  0
   -3.3574    1.9655   -1.3087 C   0  0  0  0  0  0  0  0  0  0  0  0
   -4.3084    1.4344   -0.4615 C   0  0  0  0  0  0  0  0  0  0  0  0
   -4.0181    0.2342    0.1530 C   0  0  0  0  0  0  0  0  0  0  0  0
   -2.8385   -0.4489   -0.0376 C   0  0  0  0  0  0  0  0  0  0  0  0
   -2.6636   -1.6788    0.6510 N   0  0  0  0  0  0  0  0  0  0  0  0
   -3.6701   -2.3697    0.9697 O   0  0  0  0  0  0  0  0  0  0  0  0
   -1.4448   -2.1913    1.0090 O   0  0  0  0  0  0  0  0  0  0  0  0
    3.4877   -1.6357    1.0035 N   0  0  0  0  0  0  0  0  0  0  0  0
    3.6308   -0.4102   -1.0159 C   0  0  0  0  0  0  0  0  0  0  0  0
    3.2684    0.3199   -1.9632 O   0  0  0  0  0  0  0  0  0  0  0  0
    4.9642   -0.8577   -1.0652 O   0  0  0  0  0  0  0  0  0  0  0  0
   -1.5578    2.3982    1.5575 H   0  0  0  0  0  0  0  0  0  0  0  0
    1.2733    1.0936   -1.0382 H   0  0  0  0  0  0  0  0  0  0  0  0
    2.9915    1.2910    0.7102 H   0  0  0  0  0  0  0  0  0  0  0  0
    1.9469    0.2595    1.8212 H   0  0  0  0  0  0  0  0  0  0  0  0
    1.3030   -2.3568    0.2650 H   0  0  0  0  0  0  0  0  0  0  0  0
    1.4392   -1.6791   -1.4275 H   0  0  0  0  0  0  0  0  0  0  0  0
   -0.1499   -0.2971   -2.0462 H   0  0  0  0  0  0  0  0  0  0  0  0
   -0.7959   -1.7451   -1.2707 H   0  0  0  0  0  0  0  0  0  0  0  0
   -1.4246    1.7306   -2.1883 H   0  0  0  0  0  0  0  0  0  0  0  0
   -3.5871    2.9138   -1.7938 H   0  0  0  0  0  0  0  0  0  0  0  0
   -5.2369    1.9754   -0.3135 H   0  0  0  0  0  0  0  0  0  0  0  0
   -4.7716   -0.1956    0.8303 H   0  0  0  0  0  0  0  0  0  0  0  0
    4.0531   -2.3270    0.4637 H   0  0  0  0  0  0  0  0  0  0  0  0
    2.8198   -2.1420    1.6317 H   0  0  0  0  0  0  0  0  0  0  0  0
    5.4650   -1.0100   -1.9254 H   0  0  0  0  0  0  0  0  0  0  0  0
  1  2  1  0
  2  3  2  0
  2  4  1  0
  4  5  1  0
  5  6  1  0
  6  7  1  0
  7  8  1  0
  8  9  1  0
  9 10  1  0
 10 11  2  0
 11 12  1  0
 12 13  2  0
 13 14  1  0
 14 15  2  0
 15 16  1  0
 16 17  2  0
 16 18  1  0
  6 19  1  1
  6 20  1  0
 20 21  2  0
 20 22  1  0
  8  4  1  0
 15 10  1  0
  1 23  1  0
  4 24  1  6
  5 25  1  0
  5 26  1  0
  7 27  1  0
  7 28  1  0
  9 29  1  0
  9 30  1  0
 11 31  1  0
 12 32  1  0
 13 33  1  0
 14 34  1  0
 19 35  1  0
 19 36  1  0
 22 37  1  0
M  CHG  2  16   1  18  -1
M  END
>  <Ligand ID>  (1) 
LIG0002409

>  <Ligand>  (1) 
CHEMBL544508

>  <SMILES>  (1) 
OC(=O)[C@H]1C[C@](CN1Cc1ccccc1[N+](=O)[O-])(N)C(=O)O

>  <CID>  (1) 
10474978.0

>  <ChEMBL ID>  (1) 
nan

>  <InChiKey>  (1) 
DQMVLUXFRLQZJH-ZWNOBZJWSA-N

>  <InChi>  (1) 
InChI=1S/C13H15N3O6/c14-13(12(19)20)5-10(11(17)18)15(7-13)6-8-3-1-2-4-9(8)16(21)22/h1-4,10H,5-7,14H2,(H,17,18)(H,19,20)/t10-,13-/m1/s1

>  <IUPAC Name>  (1) 
(2R,4R)-4-amino-1-[(2-nitrophenyl)methyl]pyrrolidine-2,4-dicarboxylic acid

$$$$
