
     RDKit          3D

 49 49  0  0  0  0  0  0  0  0999 V2000
    1.0520   -1.2665    3.1509 C   0  0  0  0  0  0  0  0  0  0  0  0
    1.9651   -0.4893    2.4021 O   0  0  0  0  0  0  0  0  0  0  0  0
    1.7507   -0.3489    1.0289 C   0  0  0  0  0  0  0  0  0  0  0  0
    0.6738   -0.9477    0.3874 C   0  0  0  0  0  0  0  0  0  0  0  0
    0.4710   -0.8014   -0.9766 C   0  0  0  0  0  0  0  0  0  0  0  0
    1.4053   -0.0223   -1.6650 C   0  0  0  0  0  0  0  0  0  0  0  0
    2.4735    0.5708   -1.0248 C   0  0  0  0  0  0  0  0  0  0  0  0
    2.6535    0.4099    0.3352 C   0  0  0  0  0  0  0  0  0  0  0  0
    3.7500    1.0379    0.9003 O   0  0  0  0  0  0  0  0  0  0  0  0
    4.9747    0.3445    0.9704 C   0  0  0  0  0  0  0  0  0  0  0  0
    5.9900    1.2117    1.6087 C   0  0  0  0  0  0  0  0  0  0  0  0
    7.1413    0.7537    1.7525 O   0  0  0  0  0  0  0  0  0  0  0  0
    5.7236    2.4905    2.0472 O   0  0  0  0  0  0  0  0  0  0  0  0
    3.3584    1.3299   -1.7783 O   0  0  0  0  0  0  0  0  0  0  0  0
    3.1175    1.4555   -3.1672 C   0  0  0  0  0  0  0  0  0  0  0  0
   -0.6682   -1.4272   -1.6916 C   0  0  0  0  0  0  0  0  0  0  0  0
   -2.2412   -0.5414   -1.3061 P   0  0  0  0  0  0  0  0  0  0  0  0
   -1.8351    0.8385   -0.8758 O   0  0  0  0  0  0  0  0  0  0  0  0
   -3.0958   -1.3723    0.0151 C   0  0  0  0  0  0  0  0  0  0  0  0
   -4.4875   -0.9941    0.3036 C   0  0  0  0  0  0  0  0  0  0  0  0
   -4.8147    0.3690    0.7492 C   0  0  2  0  0  0  0  0  0  0  0  0
   -4.5180    1.5060   -0.0971 C   0  0  0  0  0  0  0  0  0  0  0  0
   -3.9571    2.5213    0.4572 O   0  0  0  0  0  0  0  0  0  0  0  0
   -4.7697    1.6342   -1.4446 O   0  0  0  0  0  0  0  0  0  0  0  0
   -4.3192    0.6618    2.0967 N   0  0  0  0  0  0  0  0  0  0  0  0
   -3.1037   -0.5442   -2.7549 O   0  0  0  0  0  0  0  0  0  0  0  0
   -0.8337   -2.7477   -1.2972 O   0  0  0  0  0  0  0  0  0  0  0  0
    1.4909   -1.4282    4.1513 H   0  0  0  0  0  0  0  0  0  0  0  0
    0.0779   -0.7244    3.1942 H   0  0  0  0  0  0  0  0  0  0  0  0
    0.8711   -2.2455    2.6708 H   0  0  0  0  0  0  0  0  0  0  0  0
   -0.0198   -1.5406    0.9680 H   0  0  0  0  0  0  0  0  0  0  0  0
    1.2194    0.0735   -2.7311 H   0  0  0  0  0  0  0  0  0  0  0  0
    5.2934    0.0622   -0.0354 H   0  0  0  0  0  0  0  0  0  0  0  0
    4.8255   -0.5857    1.5489 H   0  0  0  0  0  0  0  0  0  0  0  0
    6.4855    3.0932    2.3252 H   0  0  0  0  0  0  0  0  0  0  0  0
    2.1411    1.9638   -3.3233 H   0  0  0  0  0  0  0  0  0  0  0  0
    3.9694    2.0114   -3.6164 H   0  0  0  0  0  0  0  0  0  0  0  0
    3.0758    0.4697   -3.6788 H   0  0  0  0  0  0  0  0  0  0  0  0
   -0.4375   -1.4052   -2.7583 H   0  0  0  0  0  0  0  0  0  0  0  0
   -2.5097   -1.2917    0.9750 H   0  0  0  0  0  0  0  0  0  0  0  0
   -3.0330   -2.4826   -0.2072 H   0  0  0  0  0  0  0  0  0  0  0  0
   -4.8337   -1.6841    1.1461 H   0  0  0  0  0  0  0  0  0  0  0  0
   -5.2002   -1.2532   -0.5282 H   0  0  0  0  0  0  0  0  0  0  0  0
   -5.9504    0.3787    0.8925 H   0  0  0  0  0  0  0  0  0  0  0  0
   -4.0817    2.1386   -2.0248 H   0  0  0  0  0  0  0  0  0  0  0  0
   -4.0087    1.6441    2.1832 H   0  0  0  0  0  0  0  0  0  0  0  0
   -3.6679   -0.0564    2.4415 H   0  0  0  0  0  0  0  0  0  0  0  0
   -2.5485   -0.0028   -3.3960 H   0  0  0  0  0  0  0  0  0  0  0  0
   -1.0150   -2.7672   -0.3233 H   0  0  0  0  0  0  0  0  0  0  0  0
  1  2  1  0
  2  3  1  0
  3  4  2  0
  4  5  1  0
  5  6  2  0
  6  7  1  0
  7  8  2  0
  8  9  1  0
  9 10  1  0
 10 11  1  0
 11 12  2  0
 11 13  1  0
  7 14  1  0
 14 15  1  0
  5 16  1  0
 16 17  1  0
 17 18  2  0
 17 19  1  0
 19 20  1  0
 20 21  1  0
 21 22  1  0
 22 23  2  0
 22 24  1  0
 21 25  1  0
 17 26  1  0
 16 27  1  0
  8  3  1  0
  1 28  1  0
  1 29  1  0
  1 30  1  0
  4 31  1  0
  6 32  1  0
 10 33  1  0
 10 34  1  0
 13 35  1  0
 15 36  1  0
 15 37  1  0
 15 38  1  0
 16 39  1  0
 19 40  1  0
 19 41  1  0
 20 42  1  0
 20 43  1  0
 21 44  1  1
 24 45  1  0
 25 46  1  0
 25 47  1  0
 26 48  1  0
 27 49  1  0
M  END
>  <Ligand ID>  (1) 
LIG0002012

>  <Ligand>  (1) 
US9212196, Derivative 4

>  <SMILES>  (1) 
COc1cc(cc(c1OCC(=O)O)OC)C(P(=O)(CC[C@H](C(=O)O)N)O)O

>  <CID>  (1) 
122197936.0

>  <ChEMBL ID>  (1) 
nan

>  <InChiKey>  (1) 
JDWNQHDRUKKAKP-WXMRUQJCSA-N

>  <InChi>  (1) 
InChI=1S/C15H22NO10P/c1-24-10-5-8(6-11(25-2)13(10)26-7-12(17)18)15(21)27(22,23)4-3-9(16)14(19)20/h5-6,9,15,21H,3-4,7,16H2,1-2H3,(H,17,18)(H,19,20)(H,22,23)/t9-,15?/m1/s1

>  <IUPAC Name>  (1) 
(2R)-2-amino-4-[[[4-(carboxymethoxy)-3,5-dimethoxyphenyl]-hydroxymethyl]-hydroxyphosphoryl]butanoic acid

$$$$
