
     RDKit          3D

 13 12  0  0  0  0  0  0  0  0999 V2000
   -0.0126    2.2535    0.6040 O   0  0  0  0  0  0  0  0  0  0  0  0
   -0.5436    1.4733   -0.1820 C   0  0  0  0  0  0  0  0  0  0  0  0
    0.0381    0.1246   -0.4175 C   0  0  0  0  0  0  0  0  0  0  0  0
    1.2865   -0.0995    0.4061 C   0  0  0  0  0  0  0  0  0  0  0  0
   -0.9201   -0.9875   -0.0361 C   0  0  0  0  0  0  0  0  0  0  0  0
   -1.4438    1.7160   -0.7355 H   0  0  0  0  0  0  0  0  0  0  0  0
    0.3256    0.0942   -1.4874 H   0  0  0  0  0  0  0  0  0  0  0  0
    0.9993   -0.3498    1.4506 H   0  0  0  0  0  0  0  0  0  0  0  0
    2.0153    0.7115    0.3228 H   0  0  0  0  0  0  0  0  0  0  0  0
    1.7212   -1.0621    0.0061 H   0  0  0  0  0  0  0  0  0  0  0  0
   -1.8533   -0.5553    0.3955 H   0  0  0  0  0  0  0  0  0  0  0  0
   -0.4752   -1.7437    0.6424 H   0  0  0  0  0  0  0  0  0  0  0  0
   -1.1372   -1.5751   -0.9691 H   0  0  0  0  0  0  0  0  0  0  0  0
  1  2  2  0
  2  3  1  0
  3  4  1  0
  3  5  1  0
  2  6  1  0
  3  7  1  0
  4  8  1  0
  4  9  1  0
  4 10  1  0
  5 11  1  0
  5 12  1  0
  5 13  1  0
M  END
>  <Ligand ID>  (1) 
LIG0000031

>  <Ligand>  (1) 
isobutyraldehyde

>  <SMILES>  (1) 
O=CC(C)C

>  <CID>  (1) 
6561.0

>  <ChEMBL ID>  (1) 
nan

>  <InChiKey>  (1) 
AMIMRNSIRUDHCM-UHFFFAOYSA-N

>  <InChi>  (1) 
InChI=1S/C4H8O/c1-4(2)3-5/h3-4H,1-2H3

>  <IUPAC Name>  (1) 
2-methylpropanal

$$$$
