
     RDKit          3D

196204  0  0  0  0  0  0  0  0999 V2000
   -2.3907   -6.4825    1.9668 N   0  0  0  0  0  0  0  0  0  0  0  0
   -2.7707   -6.7703    0.6287 C   0  0  0  0  0  0  0  0  0  0  0  0
   -3.2431   -7.9356    0.4333 O   0  0  0  0  0  0  0  0  0  0  0  0
   -2.6699   -5.8648   -0.5046 C   0  0  0  0  0  0  0  0  0  0  0  0
   -2.1675   -4.4888   -0.2214 C   0  0  1  0  0  0  0  0  0  0  0  0
   -2.9877   -3.7497    0.7245 N   0  0  0  0  0  0  0  0  0  0  0  0
   -3.6976   -2.5425    0.3308 C   0  0  0  0  0  0  0  0  0  0  0  0
   -3.5562   -2.2624   -0.8632 O   0  0  0  0  0  0  0  0  0  0  0  0
   -4.4952   -1.7662    1.3237 C   0  0  1  0  0  0  0  0  0  0  0  0
   -5.0485   -0.5635    0.8325 N   0  0  0  0  0  0  0  0  0  0  0  0
   -5.5129   -0.1981   -0.4521 C   0  0  0  0  0  0  0  0  0  0  0  0
   -5.6737   -1.1021   -1.2696 O   0  0  0  0  0  0  0  0  0  0  0  0
   -5.7788    1.2438   -0.7137 C   0  0  1  0  0  0  0  0  0  0  0  0
   -7.0976    1.6442   -1.2046 C   0  0  0  0  0  0  0  0  0  0  0  0
   -8.2906    1.3573   -0.3306 C   0  0  0  0  0  0  0  0  0  0  0  0
   -9.4897    1.9355   -1.1106 C   0  0  0  0  0  0  0  0  0  0  0  0
   -9.6333    1.3077   -2.4013 N   0  0  0  0  0  0  0  0  0  0  0  0
  -10.0429   -0.0318   -2.4879 C   0  0  0  0  0  0  0  0  0  0  0  0
  -11.0890   -0.3963   -1.7600 N   0  0  0  0  0  0  0  0  0  0  0  0
   -9.3710   -0.9661   -3.3433 N   0  0  0  0  0  0  0  0  0  0  0  0
   -5.3569    2.0095    0.4959 N   0  0  0  0  0  0  0  0  0  0  0  0
   -4.0796    2.6325    0.5595 C   0  0  0  0  0  0  0  0  0  0  0  0
   -3.3788    2.4759   -0.4659 O   0  0  0  0  0  0  0  0  0  0  0  0
   -3.5365    3.3980    1.6693 C   0  0  2  0  0  0  0  0  0  0  0  0
   -4.2769    4.7432    1.7441 C   0  0  0  0  0  0  0  0  0  0  0  0
   -5.7432    4.5578    1.9145 C   0  0  0  0  0  0  0  0  0  0  0  0
   -6.3116    4.2490    3.1628 C   0  0  0  0  0  0  0  0  0  0  0  0
   -7.6832    4.1713    3.2469 C   0  0  0  0  0  0  0  0  0  0  0  0
   -8.5365    4.3751    2.1918 C   0  0  0  0  0  0  0  0  0  0  0  0
   -7.9768    4.6852    0.9426 C   0  0  0  0  0  0  0  0  0  0  0  0
   -6.6199    4.7552    0.8815 C   0  0  0  0  0  0  0  0  0  0  0  0
   -2.0857    3.6153    1.4735 N   0  0  0  0  0  0  0  0  0  0  0  0
   -1.3515    4.7649    1.6505 C   0  0  0  0  0  0  0  0  0  0  0  0
   -2.0990    5.8211    1.8437 O   0  0  0  0  0  0  0  0  0  0  0  0
    0.0559    5.0901    1.6592 C   0  0  1  0  0  0  0  0  0  0  0  0
    0.2416    5.9312    2.9732 C   0  0  0  0  0  0  0  0  0  0  0  0
   -0.1225    5.1647    4.1635 C   0  0  0  0  0  0  0  0  0  0  0  0
   -1.3208    5.0553    4.7641 N   0  0  0  0  0  0  0  0  0  0  0  0
   -1.2042    4.2603    5.8460 C   0  0  0  0  0  0  0  0  0  0  0  0
    0.0956    3.8309    5.9678 N   0  0  0  0  0  0  0  0  0  0  0  0
    0.7303    4.4112    4.9137 C   0  0  0  0  0  0  0  0  0  0  0  0
    0.9726    3.9929    1.7104 N   0  0  0  0  0  0  0  0  0  0  0  0
    2.3340    4.2760    1.2575 C   0  0  0  0  0  0  0  0  0  0  0  0
    2.4486    5.3789    0.7162 O   0  0  0  0  0  0  0  0  0  0  0  0
    3.4735    3.4017    1.3996 C   0  0  1  0  0  0  0  0  0  0  0  0
    3.4127    1.9869    0.9920 C   0  0  0  0  0  0  0  0  0  0  0  0
    3.3492    1.6790   -0.4442 C   0  0  0  0  0  0  0  0  0  0  0  0
    3.0387    2.4321   -1.3658 O   0  0  0  0  0  0  0  0  0  0  0  0
    3.6976    0.3366   -0.8276 N   0  0  0  0  0  0  0  0  0  0  0  0
    3.8683   -0.1544   -2.1576 C   0  0  0  0  0  0  0  0  0  0  0  0
    3.2187   -1.4555   -2.3309 N   0  0  0  0  0  0  0  0  0  0  0  0
    3.1260   -2.1505   -3.5659 C   0  0  0  0  0  0  0  0  0  0  0  0
    3.6282   -1.5665   -4.5340 O   0  0  0  0  0  0  0  0  0  0  0  0
    2.4839   -3.4793   -3.7141 C   0  0  2  0  0  0  0  0  0  0  0  0
    1.8598   -3.9802   -2.5138 N   0  0  0  0  0  0  0  0  0  0  0  0
    2.5328   -4.4117   -1.3404 C   0  0  0  0  0  0  0  0  0  0  0  0
    3.7612   -4.3209   -1.3422 O   0  0  0  0  0  0  0  0  0  0  0  0
    1.7203   -4.9377   -0.1944 C   0  0  1  0  0  0  0  0  0  0  0  0
    0.3151   -5.0534   -0.5855 N   0  0  0  0  0  0  0  0  0  0  0  0
   -0.7390   -4.4097    0.1513 C   0  0  0  0  0  0  0  0  0  0  0  0
   -0.3159   -3.7711    1.1463 O   0  0  0  0  0  0  0  0  0  0  0  0
    2.3145   -6.2538    0.2167 C   0  0  0  0  0  0  0  0  0  0  0  0
    3.5381   -4.4390   -4.2485 C   0  0  0  0  0  0  0  0  0  0  0  0
    2.9681   -5.8113   -4.4394 C   0  0  0  0  0  0  0  0  0  0  0  0
    3.0940   -6.8048   -3.4907 C   0  0  0  0  0  0  0  0  0  0  0  0
    2.5031   -8.0527   -3.6888 C   0  0  0  0  0  0  0  0  0  0  0  0
    1.7953   -8.2539   -4.8632 C   0  0  0  0  0  0  0  0  0  0  0  0
    1.6834   -7.2586   -5.7904 C   0  0  0  0  0  0  0  0  0  0  0  0
    2.2656   -5.9953   -5.6191 C   0  0  0  0  0  0  0  0  0  0  0  0
    5.3666   -0.5576   -2.2489 C   0  0  0  0  0  0  0  0  0  0  0  0
    5.8423   -0.8654   -3.3701 O   0  0  0  0  0  0  0  0  0  0  0  0
    6.1852   -0.5863   -1.1028 N   0  0  0  0  0  0  0  0  0  0  0  0
    7.5555   -0.9457   -1.1502 N   0  0  0  0  0  0  0  0  0  0  0  0
    8.0565   -1.0474    0.2343 C   0  0  2  0  0  0  0  0  0  0  0  0
    9.5184   -1.2772    0.1816 C   0  0  0  0  0  0  0  0  0  0  0  0
   10.2206   -1.4468    1.2232 O   0  0  0  0  0  0  0  0  0  0  0  0
   10.2408   -1.3202   -1.0962 C   0  0  0  0  0  0  0  0  0  0  0  0
    9.7179   -1.1525   -2.2070 O   0  0  0  0  0  0  0  0  0  0  0  0
   11.6283   -1.5655   -1.0967 O   0  0  0  0  0  0  0  0  0  0  0  0
    7.3143   -2.1841    0.9113 C   0  0  0  0  0  0  0  0  0  0  0  0
    7.7006   -2.4015    2.3222 C   0  0  0  0  0  0  0  0  0  0  0  0
    7.0173   -1.6819    3.2691 C   0  0  0  0  0  0  0  0  0  0  0  0
    7.3473   -1.8905    4.5988 C   0  0  0  0  0  0  0  0  0  0  0  0
    8.3482   -2.8151    4.9461 C   0  0  0  0  0  0  0  0  0  0  0  0
    8.9877   -3.4980    3.9510 C   0  0  0  0  0  0  0  0  0  0  0  0
    8.6870   -3.3140    2.5935 C   0  0  0  0  0  0  0  0  0  0  0  0
    8.6221   -2.9727    6.2906 O   0  0  0  0  0  0  0  0  0  0  0  0
    4.6585    4.0676    0.8817 N   0  0  0  0  0  0  0  0  0  0  0  0
    4.8642    4.1657   -0.4288 N   0  0  0  0  0  0  0  0  0  0  0  0
    5.0719    5.3643   -1.1184 C   0  0  1  0  0  0  0  0  0  0  0  0
    6.2638    6.2099   -0.7442 C   0  0  0  0  0  0  0  0  0  0  0  0
    6.3958    7.3732   -1.6864 C   0  0  0  0  0  0  0  0  0  0  0  0
    6.9587    8.5752   -1.3372 C   0  0  0  0  0  0  0  0  0  0  0  0
    7.1080    9.6627   -2.1217 C   0  0  0  0  0  0  0  0  0  0  0  0
    6.6390    9.5609   -3.4452 C   0  0  0  0  0  0  0  0  0  0  0  0
    6.0542    8.3658   -3.8732 C   0  0  0  0  0  0  0  0  0  0  0  0
    5.9331    7.2858   -3.0090 C   0  0  0  0  0  0  0  0  0  0  0  0
    5.3218    6.1055   -3.5120 N   0  0  0  0  0  0  0  0  0  0  0  0
    5.2064    5.0189   -2.5985 C   0  0  0  0  0  0  0  0  0  0  0  0
    5.2175    3.8201   -2.9850 O   0  0  0  0  0  0  0  0  0  0  0  0
    6.7472   10.6285   -4.3312 O   0  0  0  0  0  0  0  0  0  0  0  0
   -5.1946   -2.5397    2.3615 C   0  0  0  0  0  0  0  0  0  0  0  0
   -6.1519   -3.5692    1.9124 C   0  0  0  0  0  0  0  0  0  0  0  0
   -5.8547   -4.9301    1.9670 C   0  0  0  0  0  0  0  0  0  0  0  0
   -6.8826   -5.6627    1.5136 N   0  0  0  0  0  0  0  0  0  0  0  0
   -7.8489   -4.7990    1.1636 C   0  0  0  0  0  0  0  0  0  0  0  0
   -7.4227   -3.4873    1.3999 C   0  0  0  0  0  0  0  0  0  0  0  0
   -8.2204   -2.4086    1.1342 C   0  0  0  0  0  0  0  0  0  0  0  0
   -9.4882   -2.6748    0.6159 C   0  0  0  0  0  0  0  0  0  0  0  0
   -9.8996   -3.9589    0.3877 C   0  0  0  0  0  0  0  0  0  0  0  0
   -9.1121   -5.0750    0.6445 C   0  0  0  0  0  0  0  0  0  0  0  0
   -1.4982   -5.9851    2.1938 H   0  0  0  0  0  0  0  0  0  0  0  0
   -2.9716   -6.7492    2.7987 H   0  0  0  0  0  0  0  0  0  0  0  0
   -2.0120   -6.2909   -1.2992 H   0  0  0  0  0  0  0  0  0  0  0  0
   -3.6746   -5.7765   -1.0354 H   0  0  0  0  0  0  0  0  0  0  0  0
   -2.2272   -3.9436   -1.2143 H   0  0  0  0  0  0  0  0  0  0  0  0
   -3.1361   -3.9963    1.7000 H   0  0  0  0  0  0  0  0  0  0  0  0
   -3.5332   -1.3048    1.9161 H   0  0  0  0  0  0  0  0  0  0  0  0
   -5.1682    0.2243    1.5398 H   0  0  0  0  0  0  0  0  0  0  0  0
   -5.0247    1.4936   -1.5349 H   0  0  0  0  0  0  0  0  0  0  0  0
   -7.0981    2.7187   -1.5398 H   0  0  0  0  0  0  0  0  0  0  0  0
   -7.2958    1.0622   -2.1648 H   0  0  0  0  0  0  0  0  0  0  0  0
   -8.4896    0.2713   -0.2428 H   0  0  0  0  0  0  0  0  0  0  0  0
   -8.2394    1.7713    0.6726 H   0  0  0  0  0  0  0  0  0  0  0  0
  -10.4212    1.8727   -0.5179 H   0  0  0  0  0  0  0  0  0  0  0  0
   -9.2765    3.0227   -1.2603 H   0  0  0  0  0  0  0  0  0  0  0  0
   -9.4312    1.8093   -3.3115 H   0  0  0  0  0  0  0  0  0  0  0  0
  -11.2986   -1.4591   -1.9165 H   0  0  0  0  0  0  0  0  0  0  0  0
   -9.1520   -0.6528   -4.3012 H   0  0  0  0  0  0  0  0  0  0  0  0
   -9.1582   -1.8920   -2.9223 H   0  0  0  0  0  0  0  0  0  0  0  0
   -5.9461    2.0948    1.3167 H   0  0  0  0  0  0  0  0  0  0  0  0
   -3.6904    2.9846    2.6896 H   0  0  0  0  0  0  0  0  0  0  0  0
   -4.0961    5.3455    0.8573 H   0  0  0  0  0  0  0  0  0  0  0  0
   -3.8888    5.2860    2.6435 H   0  0  0  0  0  0  0  0  0  0  0  0
   -5.6747    4.0845    4.0223 H   0  0  0  0  0  0  0  0  0  0  0  0
   -8.1650    3.9288    4.2002 H   0  0  0  0  0  0  0  0  0  0  0  0
   -9.6120    4.2968    2.3254 H   0  0  0  0  0  0  0  0  0  0  0  0
   -8.6115    4.8605    0.0924 H   0  0  0  0  0  0  0  0  0  0  0  0
   -6.1827    4.9895   -0.0981 H   0  0  0  0  0  0  0  0  0  0  0  0
   -1.5796    2.7739    1.1506 H   0  0  0  0  0  0  0  0  0  0  0  0
    0.3901    5.8385    0.8977 H   0  0  0  0  0  0  0  0  0  0  0  0
   -0.4691    6.7598    2.8407 H   0  0  0  0  0  0  0  0  0  0  0  0
    1.2581    6.3652    2.9885 H   0  0  0  0  0  0  0  0  0  0  0  0
   -2.2417    5.4757    4.5082 H   0  0  0  0  0  0  0  0  0  0  0  0
   -1.9437    3.9457    6.5592 H   0  0  0  0  0  0  0  0  0  0  0  0
    1.8075    4.2286    4.7703 H   0  0  0  0  0  0  0  0  0  0  0  0
    0.8340    3.0360    1.9988 H   0  0  0  0  0  0  0  0  0  0  0  0
    3.7102    3.3671    2.5317 H   0  0  0  0  0  0  0  0  0  0  0  0
    2.5420    1.5138    1.5489 H   0  0  0  0  0  0  0  0  0  0  0  0
    4.2890    1.3962    1.4303 H   0  0  0  0  0  0  0  0  0  0  0  0
    3.8092   -0.3084   -0.0443 H   0  0  0  0  0  0  0  0  0  0  0  0
    3.7301    0.4994   -3.0009 H   0  0  0  0  0  0  0  0  0  0  0  0
    2.7941   -1.8885   -1.5247 H   0  0  0  0  0  0  0  0  0  0  0  0
    1.7421   -3.4163   -4.5472 H   0  0  0  0  0  0  0  0  0  0  0  0
    0.8369   -4.0303   -2.4885 H   0  0  0  0  0  0  0  0  0  0  0  0
    1.8418   -4.2387    0.6507 H   0  0  0  0  0  0  0  0  0  0  0  0
   -0.0042   -5.5859   -1.3916 H   0  0  0  0  0  0  0  0  0  0  0  0
    3.3889   -6.1469    0.4020 H   0  0  0  0  0  0  0  0  0  0  0  0
    1.7410   -6.5945    1.1100 H   0  0  0  0  0  0  0  0  0  0  0  0
    2.0935   -6.9899   -0.5951 H   0  0  0  0  0  0  0  0  0  0  0  0
    3.8855   -4.0753   -5.2118 H   0  0  0  0  0  0  0  0  0  0  0  0
    4.3854   -4.4956   -3.5530 H   0  0  0  0  0  0  0  0  0  0  0  0
    3.6508   -6.6970   -2.5745 H   0  0  0  0  0  0  0  0  0  0  0  0
    2.5752   -8.8474   -2.9655 H   0  0  0  0  0  0  0  0  0  0  0  0
    1.3491   -9.2145   -4.9927 H   0  0  0  0  0  0  0  0  0  0  0  0
    1.1234   -7.4640   -6.6980 H   0  0  0  0  0  0  0  0  0  0  0  0
    2.1493   -5.2464   -6.3810 H   0  0  0  0  0  0  0  0  0  0  0  0
    5.8000   -0.3283   -0.1713 H   0  0  0  0  0  0  0  0  0  0  0  0
    7.6579   -1.8917   -1.6060 H   0  0  0  0  0  0  0  0  0  0  0  0
    7.7895   -0.0990    0.7361 H   0  0  0  0  0  0  0  0  0  0  0  0
   12.0881   -1.9254   -1.9355 H   0  0  0  0  0  0  0  0  0  0  0  0
    7.5199   -3.1265    0.3445 H   0  0  0  0  0  0  0  0  0  0  0  0
    6.2276   -2.0088    0.8550 H   0  0  0  0  0  0  0  0  0  0  0  0
    6.2427   -0.9690    3.0610 H   0  0  0  0  0  0  0  0  0  0  0  0
    6.8376   -1.3379    5.3519 H   0  0  0  0  0  0  0  0  0  0  0  0
    9.7582   -4.2070    4.1838 H   0  0  0  0  0  0  0  0  0  0  0  0
    9.2160   -3.8830    1.8519 H   0  0  0  0  0  0  0  0  0  0  0  0
    7.7986   -2.9978    6.9225 H   0  0  0  0  0  0  0  0  0  0  0  0
    5.1480    4.6799    1.5494 H   0  0  0  0  0  0  0  0  0  0  0  0
    5.4815    3.3842   -0.8288 H   0  0  0  0  0  0  0  0  0  0  0  0
    4.1722    6.0066   -1.0926 H   0  0  0  0  0  0  0  0  0  0  0  0
    6.1397    6.6407    0.2633 H   0  0  0  0  0  0  0  0  0  0  0  0
    7.2250    5.6913   -0.7854 H   0  0  0  0  0  0  0  0  0  0  0  0
    7.3264    8.6491   -0.3017 H   0  0  0  0  0  0  0  0  0  0  0  0
    7.5494   10.6081   -1.8494 H   0  0  0  0  0  0  0  0  0  0  0  0
    5.6837    8.2619   -4.8985 H   0  0  0  0  0  0  0  0  0  0  0  0
    4.9641    5.9996   -4.4870 H   0  0  0  0  0  0  0  0  0  0  0  0
    7.4532   10.4965   -5.0613 H   0  0  0  0  0  0  0  0  0  0  0  0
   -4.4537   -3.0478    3.0404 H   0  0  0  0  0  0  0  0  0  0  0  0
   -5.7229   -1.8436    3.1090 H   0  0  0  0  0  0  0  0  0  0  0  0
   -4.9397   -5.3819    2.3207 H   0  0  0  0  0  0  0  0  0  0  0  0
   -6.8992   -6.7213    1.4578 H   0  0  0  0  0  0  0  0  0  0  0  0
   -7.8477   -1.4232    1.3335 H   0  0  0  0  0  0  0  0  0  0  0  0
  -10.1322   -1.8456    0.4020 H   0  0  0  0  0  0  0  0  0  0  0  0
  -10.8915   -4.1968   -0.0161 H   0  0  0  0  0  0  0  0  0  0  0  0
   -9.4096   -6.0761    0.4723 H   0  0  0  0  0  0  0  0  0  0  0  0
  1  2  1  0
  2  3  2  0
  2  4  1  0
  4  5  1  0
  5  6  1  0
  6  7  1  0
  7  8  2  0
  7  9  1  0
  9 10  1  0
 10 11  1  0
 11 12  2  0
 11 13  1  0
 13 14  1  0
 14 15  1  0
 15 16  1  0
 16 17  1  0
 17 18  1  0
 18 19  2  3
 18 20  1  0
 13 21  1  0
 21 22  1  0
 22 23  2  0
 22 24  1  0
 24 25  1  0
 25 26  1  0
 26 27  2  0
 27 28  1  0
 28 29  2  0
 29 30  1  0
 30 31  2  0
 24 32  1  0
 32 33  1  0
 33 34  2  0
 33 35  1  0
 35 36  1  0
 36 37  1  0
 37 38  1  0
 38 39  1  0
 39 40  2  0
 40 41  1  0
 35 42  1  0
 42 43  1  0
 43 44  2  0
 43 45  1  0
 45 46  1  0
 46 47  1  0
 47 48  2  0
 47 49  1  0
 49 50  1  0
 50 51  1  0
 51 52  1  0
 52 53  2  0
 52 54  1  0
 54 55  1  0
 55 56  1  0
 56 57  2  0
 56 58  1  0
 58 59  1  0
 59 60  1  0
 60 61  2  0
 58 62  1  0
 54 63  1  0
 63 64  1  0
 64 65  2  0
 65 66  1  0
 66 67  2  0
 67 68  1  0
 68 69  2  0
 50 70  1  0
 70 71  2  0
 70 72  1  0
 72 73  1  0
 73 74  1  0
 74 75  1  0
 75 76  2  0
 75 77  1  0
 77 78  2  0
 77 79  1  0
 74 80  1  0
 80 81  1  0
 81 82  2  0
 82 83  1  0
 83 84  2  0
 84 85  1  0
 85 86  2  0
 84 87  1  0
 45 88  1  0
 88 89  1  0
 89 90  1  0
 90 91  1  0
 91 92  1  0
 92 93  2  0
 93 94  1  0
 94 95  2  0
 95 96  1  0
 96 97  2  0
 97 98  1  0
 98 99  1  0
 99100  2  0
 95101  1  0
  9102  1  0
102103  1  0
103104  2  0
104105  1  0
105106  1  0
106107  2  0
107108  1  0
108109  2  0
109110  1  0
110111  2  0
 60  5  1  0
 69 64  1  0
 86 81  1  0
 99 90  1  0
107103  1  0
 31 26  1  0
 41 37  2  0
 97 92  1  0
111106  1  0
  1112  1  0
  1113  1  0
  4114  1  0
  4115  1  0
  5116  1  6
  6117  1  0
  9118  1  1
 10119  1  0
 13120  1  6
 14121  1  0
 14122  1  0
 15123  1  0
 15124  1  0
 16125  1  0
 16126  1  0
 17127  1  0
 19128  1  0
 20129  1  0
 20130  1  0
 21131  1  0
 24132  1  1
 25133  1  0
 25134  1  0
 27135  1  0
 28136  1  0
 29137  1  0
 30138  1  0
 31139  1  0
 32140  1  0
 35141  1  6
 36142  1  0
 36143  1  0
 38144  1  0
 39145  1  0
 41146  1  0
 42147  1  0
 45148  1  1
 46149  1  0
 46150  1  0
 49151  1  0
 50152  1  0
 51153  1  0
 54154  1  6
 55155  1  0
 58156  1  1
 59157  1  0
 62158  1  0
 62159  1  0
 62160  1  0
 63161  1  0
 63162  1  0
 65163  1  0
 66164  1  0
 67165  1  0
 68166  1  0
 69167  1  0
 72168  1  0
 73169  1  0
 74170  1  1
 79171  1  0
 80172  1  0
 80173  1  0
 82174  1  0
 83175  1  0
 85176  1  0
 86177  1  0
 87178  1  0
 88179  1  0
 89180  1  0
 90181  1  6
 91182  1  0
 91183  1  0
 93184  1  0
 94185  1  0
 96186  1  0
 98187  1  0
101188  1  0
102189  1  0
102190  1  0
104191  1  0
105192  1  0
108193  1  0
109194  1  0
110195  1  0
111196  1  0
M  END
>  <Ligand ID>  (1) 
LIG0001123

>  <Ligand>  (1) 
CHEMBL406032

>  <SMILES>  (1) 
NC(=O)C[C@H]1NC(=O)[C@@H](NC(=O)[C@@H](CCCNC(=N)N)NC(=O)[C@H](Cc2ccccc2)NC(=O)[C@@H](Cc2[nH]cnc2)NC(=O)[C@@H](CC(=O)NC(NC(=O)[C@H](NC(=O)[C@@H](NC1=O)C)Cc1ccccc1)C(=O)NN[C@H](C(=O)C(=O)O)Cc1ccc(cc1)O)NN[C@H]1Cc2ccc(cc2NC1=O)O)Cc1c[nH]c2c1cccc2

>  <CID>  (1) 
91932913.0

>  <ChEMBL ID>  (1) 
nan

>  <InChiKey>  (1) 
IURJLDFCJBKSNA-SMZVWYTNSA-N

>  <InChi>  (1) 
InChI=1S/C73H85N21O17/c1-37-62(100)84-52(27-39-13-6-3-7-14-39)68(106)90-61(71(109)94-91-50(60(99)72(110)111)25-40-18-21-44(95)22-19-40)89-59(98)33-57(93-92-56-28-41-20-23-45(96)31-49(41)83-69(56)107)70(108)87-54(30-43-35-77-36-80-43)67(105)85-51(26-38-11-4-2-5-12-38)65(103)82-48(17-10-24-78-73(75)76)63(101)86-53(29-42-34-79-47-16-9-8-15-46(42)47)66(104)88-55(32-58(74)97)64(102)81-37/h2-9,11-16,18-23,31,34-37,48,50-57,61,79,91-93,95-96H,10,17,24-30,32-33H2,1H3,(H2,74,97)(H,77,80)(H,81,102)(H,82,103)(H,83,107)(H,84,100)(H,85,105)(H,86,101)(H,87,108)(H,88,104)(H,89,98)(H,90,106)(H,94,109)(H,110,111)(H4,75,76,78)/t37-,48+,50-,51-,52+,53-,54+,55+,56-,57+,61?/m0/s1

>  <IUPAC Name>  (1) 
(3S)-3-[2-[(5R,8S,11R,14S,17R,20S,23R,26R)-11-(2-amino-2-oxoethyl)-5,20-dibenzyl-17-(3-carbamimidamidopropyl)-26-[2-[(3S)-7-hydroxy-2-oxo-3,4-dihydro-1H-quinolin-3-yl]hydrazinyl]-23-(1H-imidazol-5-ylmethyl)-14-(1H-indol-3-ylmethyl)-8-methyl-4,7,10,13,16,19,22,25,28-nonaoxo-1,3,6,9,12,15,18,21,24-nonazacyclooctacosane-2-carbonyl]hydrazinyl]-4-(4-hydroxyphenyl)-2-oxobutanoic acid

$$$$
