
     RDKit          3D

 50 52  0  0  0  0  0  0  0  0999 V2000
    3.7214   -4.5345    1.1732 N   0  0  0  0  0  0  0  0  0  0  0  0
    2.8208   -3.6502    0.5245 C   0  0  0  0  0  0  0  0  0  0  0  0
    1.9389   -4.1374   -0.2331 O   0  0  0  0  0  0  0  0  0  0  0  0
    2.8653   -2.1756    0.6938 C   0  0  0  0  0  0  0  0  0  0  0  0
    4.2343   -1.6027    0.4057 C   0  0  0  0  0  0  0  0  0  0  0  0
    4.7789   -1.8279   -0.9695 C   0  0  0  0  0  0  0  0  0  0  0  0
    5.2004   -1.9202    1.4943 C   0  0  0  0  0  0  0  0  0  0  0  0
    4.8312   -0.7271    2.1550 O   0  0  0  0  0  0  0  0  0  0  0  0
    4.4519   -0.2072    0.9419 C   0  0  0  0  0  0  0  0  0  0  0  0
    1.8350   -1.5174   -0.0775 N   0  0  0  0  0  0  0  0  0  0  0  0
    0.8135   -0.7398    0.5328 C   0  0  0  0  0  0  0  0  0  0  0  0
    0.8112   -0.6248    1.7783 O   0  0  0  0  0  0  0  0  0  0  0  0
   -0.1925   -0.1035   -0.2932 C   0  0  0  0  0  0  0  0  0  0  0  0
   -0.1841   -0.2337   -1.6297 N   0  0  0  0  0  0  0  0  0  0  0  0
   -1.1257    0.3659   -2.3754 C   0  0  0  0  0  0  0  0  0  0  0  0
   -2.1432    1.1416   -1.8056 C   0  0  0  0  0  0  0  0  0  0  0  0
   -2.1759    1.2930   -0.4275 C   0  0  0  0  0  0  0  0  0  0  0  0
   -1.1840    0.6542    0.2823 C   0  0  0  0  0  0  0  0  0  0  0  0
   -3.1733    2.0514    0.1073 O   0  0  0  0  0  0  0  0  0  0  0  0
   -3.4283    2.3559    1.4372 C   0  0  2  0  0  0  0  0  0  0  0  0
   -4.7857    1.8529    1.8871 C   0  0  0  0  0  0  0  0  0  0  0  0
   -4.8236    0.4865    1.7370 F   0  0  0  0  0  0  0  0  0  0  0  0
   -5.7717    2.4912    1.1839 F   0  0  0  0  0  0  0  0  0  0  0  0
   -4.9128    2.1300    3.2353 F   0  0  0  0  0  0  0  0  0  0  0  0
   -3.3726    3.8613    1.6355 C   0  0  0  0  0  0  0  0  0  0  0  0
   -3.1108    1.7430   -2.7267 C   0  0  0  0  0  0  0  0  0  0  0  0
   -4.3250    0.8217   -3.0069 C   0  0  0  0  0  0  0  0  0  0  0  0
   -4.4547    2.1741   -2.4091 C   0  0  0  0  0  0  0  0  0  0  0  0
    4.6040   -4.8832    0.7868 H   0  0  0  0  0  0  0  0  0  0  0  0
    3.4331   -4.8479    2.1420 H   0  0  0  0  0  0  0  0  0  0  0  0
    2.6865   -1.9570    1.7793 H   0  0  0  0  0  0  0  0  0  0  0  0
    3.9956   -1.9149   -1.7290 H   0  0  0  0  0  0  0  0  0  0  0  0
    5.3614   -0.9035   -1.2548 H   0  0  0  0  0  0  0  0  0  0  0  0
    5.5366   -2.6399   -1.0112 H   0  0  0  0  0  0  0  0  0  0  0  0
    4.9482   -2.7557    2.1487 H   0  0  0  0  0  0  0  0  0  0  0  0
    6.2679   -1.9091    1.1528 H   0  0  0  0  0  0  0  0  0  0  0  0
    3.5670    0.4565    0.9489 H   0  0  0  0  0  0  0  0  0  0  0  0
    5.3017    0.2647    0.4044 H   0  0  0  0  0  0  0  0  0  0  0  0
    1.8211   -1.6023   -1.1203 H   0  0  0  0  0  0  0  0  0  0  0  0
   -1.0774    0.2328   -3.4372 H   0  0  0  0  0  0  0  0  0  0  0  0
   -1.1714    0.7448    1.3540 H   0  0  0  0  0  0  0  0  0  0  0  0
   -2.6769    1.8804    2.0948 H   0  0  0  0  0  0  0  0  0  0  0  0
   -4.4265    4.2241    1.5034 H   0  0  0  0  0  0  0  0  0  0  0  0
   -2.6857    4.2953    0.9026 H   0  0  0  0  0  0  0  0  0  0  0  0
   -3.0888    4.0340    2.6847 H   0  0  0  0  0  0  0  0  0  0  0  0
   -2.6430    2.1355   -3.6609 H   0  0  0  0  0  0  0  0  0  0  0  0
   -4.5890    0.6307   -4.0631 H   0  0  0  0  0  0  0  0  0  0  0  0
   -4.4684   -0.0571   -2.3647 H   0  0  0  0  0  0  0  0  0  0  0  0
   -4.9104    2.9451   -3.0894 H   0  0  0  0  0  0  0  0  0  0  0  0
   -4.9248    2.2059   -1.4226 H   0  0  0  0  0  0  0  0  0  0  0  0
  1  2  1  0
  2  3  2  0
  2  4  1  0
  4  5  1  0
  5  6  1  0
  5  7  1  0
  7  8  1  0
  8  9  1  0
  4 10  1  0
 10 11  1  0
 11 12  2  0
 11 13  1  0
 13 14  2  0
 14 15  1  0
 15 16  2  0
 16 17  1  0
 17 18  2  0
 17 19  1  0
 19 20  1  0
 20 21  1  0
 21 22  1  0
 21 23  1  0
 21 24  1  0
 20 25  1  0
 16 26  1  0
 26 27  1  0
 27 28  1  0
  9  5  1  0
 18 13  1  0
 28 26  1  0
  1 29  1  0
  1 30  1  0
  4 31  1  0
  6 32  1  0
  6 33  1  0
  6 34  1  0
  7 35  1  0
  7 36  1  0
  9 37  1  0
  9 38  1  0
 10 39  1  0
 15 40  1  0
 18 41  1  0
 20 42  1  1
 25 43  1  0
 25 44  1  0
 25 45  1  0
 26 46  1  0
 27 47  1  0
 27 48  1  0
 28 49  1  0
 28 50  1  0
M  END
>  <Ligand ID>  (1) 
LIG0005181

>  <Ligand>  (1) 
CHEMBL3932300

>  <SMILES>  (1) 
NC(=O)C(C1(C)COC1)NC(=O)c1ncc(c(c1)O[C@H](C(F)(F)F)C)C1CC1

>  <CID>  (1) 
90203915.0

>  <ChEMBL ID>  (1) 
nan

>  <InChiKey>  (1) 
UAKWZPSROCCUHZ-CUVJYRNJSA-N

>  <InChi>  (1) 
InChI=1S/C18H22F3N3O4/c1-9(18(19,20)21)28-13-5-12(23-6-11(13)10-3-4-10)16(26)24-14(15(22)25)17(2)7-27-8-17/h5-6,9-10,14H,3-4,7-8H2,1-2H3,(H2,22,25)(H,24,26)/t9-,14?/m0/s1

>  <IUPAC Name>  (1) 
N-[2-amino-1-(3-methyloxetan-3-yl)-2-oxoethyl]-5-cyclopropyl-4-[(2S)-1,1,1-trifluoropropan-2-yl]oxypyridine-2-carboxamide

$$$$
