
     RDKit          3D

 96 99  0  0  0  0  0  0  0  0999 V2000
   -0.3263   -6.6313    2.0713 N   0  0  0  0  0  0  0  0  0  0  0  0
    0.5501   -5.5699    1.7796 C   0  0  0  0  0  0  0  0  0  0  0  0
    0.2531   -4.7017    0.8636 N   0  0  0  0  0  0  0  0  0  0  0  0
    1.1175   -3.5804    0.5150 C   0  0  0  0  0  0  0  0  0  0  0  0
    1.4333   -3.5574   -0.9650 C   0  0  0  0  0  0  0  0  0  0  0  0
    2.3141   -2.3967   -1.3660 C   0  0  0  0  0  0  0  0  0  0  0  0
    1.7105   -1.0577   -1.0949 C   0  0  1  0  0  0  0  0  0  0  0  0
    2.6725    0.0414   -1.5104 C   0  0  0  0  0  0  0  0  0  0  0  0
    2.3631    0.9055   -2.3589 O   0  0  0  0  0  0  0  0  0  0  0  0
    3.9375   -0.0093   -0.8497 N   0  0  0  0  0  0  0  0  0  0  0  0
    5.0006    0.9479   -1.1065 C   0  0  2  0  0  0  0  0  0  0  0  0
    6.1321    0.1723   -1.6839 C   0  0  0  0  0  0  0  0  0  0  0  0
    7.2217    0.7483   -2.0239 O   0  0  0  0  0  0  0  0  0  0  0  0
    6.0768   -1.2345   -1.8923 N   0  0  0  0  0  0  0  0  0  0  0  0
    5.3359    1.6013    0.2142 C   0  0  0  0  0  0  0  0  0  0  0  0
    6.4172    2.5932    0.0560 C   0  0  0  0  0  0  0  0  0  0  0  0
    7.7192    2.3471    0.4684 C   0  0  0  0  0  0  0  0  0  0  0  0
    8.4865    3.4108    0.2071 N   0  0  0  0  0  0  0  0  0  0  0  0
    7.7093    4.3500   -0.3692 C   0  0  0  0  0  0  0  0  0  0  0  0
    6.4322    3.8508   -0.4645 C   0  0  0  0  0  0  0  0  0  0  0  0
    5.3817    4.5735   -1.0164 C   0  0  0  0  0  0  0  0  0  0  0  0
    5.6533    5.8384   -1.4804 C   0  0  0  0  0  0  0  0  0  0  0  0
    6.9270    6.3426   -1.3879 C   0  0  0  0  0  0  0  0  0  0  0  0
    7.9580    5.6174   -0.8394 C   0  0  0  0  0  0  0  0  0  0  0  0
    0.4730   -0.7954   -1.8379 N   0  0  0  0  0  0  0  0  0  0  0  0
   -0.6424   -0.3972   -1.1071 C   0  0  0  0  0  0  0  0  0  0  0  0
   -0.4931   -0.2969    0.1683 O   0  0  0  0  0  0  0  0  0  0  0  0
   -1.9868   -0.0704   -1.6055 C   0  0  2  0  0  0  0  0  0  0  0  0
   -2.8231    0.2404   -0.4372 N   0  0  0  0  0  0  0  0  0  0  0  0
   -3.6528    1.3865   -0.3726 C   0  0  0  0  0  0  0  0  0  0  0  0
   -3.7432    2.2137   -1.3359 O   0  0  0  0  0  0  0  0  0  0  0  0
   -4.4499    1.6205    0.8971 C   0  0  2  0  0  0  0  0  0  0  0  0
   -4.9884    0.3973    1.5092 C   0  0  0  0  0  0  0  0  0  0  0  0
   -5.7482    0.7110    2.7363 C   0  0  0  0  0  0  0  0  0  0  0  0
   -5.0806    0.7427    3.9599 C   0  0  0  0  0  0  0  0  0  0  0  0
   -5.7045    1.0109    5.1498 C   0  0  0  0  0  0  0  0  0  0  0  0
   -7.0729    1.2672    5.1598 C   0  0  0  0  0  0  0  0  0  0  0  0
   -7.7471    1.2388    3.9493 C   0  0  0  0  0  0  0  0  0  0  0  0
   -7.1183    0.9682    2.7487 C   0  0  0  0  0  0  0  0  0  0  0  0
   -5.3418    2.7297    0.7116 N   0  0  0  0  0  0  0  0  0  0  0  0
   -4.9007    4.0332    1.1722 C   0  0  0  0  0  0  0  0  0  0  0  0
   -3.7918    4.2148    1.7105 O   0  0  0  0  0  0  0  0  0  0  0  0
   -5.8654    5.1655    0.9632 C   0  0  0  0  0  0  0  0  0  0  0  0
   -2.5930   -0.9058   -2.6290 C   0  0  0  0  0  0  0  0  0  0  0  0
   -2.8612   -2.3000   -2.4845 C   0  0  0  0  0  0  0  0  0  0  0  0
   -1.9808   -3.3033   -2.8829 C   0  0  0  0  0  0  0  0  0  0  0  0
   -2.2950   -4.6280   -2.7227 C   0  0  0  0  0  0  0  0  0  0  0  0
   -3.4649   -5.0265   -2.1756 C   0  0  0  0  0  0  0  0  0  0  0  0
   -4.3650   -4.0715   -1.7671 C   0  0  0  0  0  0  0  0  0  0  0  0
   -4.0517   -2.7407   -1.9264 C   0  0  0  0  0  0  0  0  0  0  0  0
    1.7649   -5.4883    2.5220 N   0  0  0  0  0  0  0  0  0  0  0  0
   -1.0624   -6.8965    1.3511 H   0  0  0  0  0  0  0  0  0  0  0  0
   -0.2762   -7.1594    2.9629 H   0  0  0  0  0  0  0  0  0  0  0  0
    2.0411   -3.6862    1.1234 H   0  0  0  0  0  0  0  0  0  0  0  0
    0.6029   -2.6783    0.8851 H   0  0  0  0  0  0  0  0  0  0  0  0
    0.4639   -3.4555   -1.4810 H   0  0  0  0  0  0  0  0  0  0  0  0
    1.8754   -4.5287   -1.2186 H   0  0  0  0  0  0  0  0  0  0  0  0
    3.2224   -2.4671   -0.7061 H   0  0  0  0  0  0  0  0  0  0  0  0
    2.6113   -2.5414   -2.4190 H   0  0  0  0  0  0  0  0  0  0  0  0
    1.5951   -0.9393   -0.0032 H   0  0  0  0  0  0  0  0  0  0  0  0
    4.1555   -0.7467   -0.1384 H   0  0  0  0  0  0  0  0  0  0  0  0
    4.6956    1.7019   -1.8425 H   0  0  0  0  0  0  0  0  0  0  0  0
    5.9773   -1.9250   -1.0938 H   0  0  0  0  0  0  0  0  0  0  0  0
    6.1314   -1.6273   -2.8493 H   0  0  0  0  0  0  0  0  0  0  0  0
    4.4217    2.1008    0.5500 H   0  0  0  0  0  0  0  0  0  0  0  0
    5.6083    0.7973    0.9333 H   0  0  0  0  0  0  0  0  0  0  0  0
    8.0847    1.4451    0.9320 H   0  0  0  0  0  0  0  0  0  0  0  0
    9.5222    3.4906    0.4213 H   0  0  0  0  0  0  0  0  0  0  0  0
    4.3964    4.1910   -1.0890 H   0  0  0  0  0  0  0  0  0  0  0  0
    4.8648    6.4256   -1.9138 H   0  0  0  0  0  0  0  0  0  0  0  0
    7.0818    7.3458   -1.7720 H   0  0  0  0  0  0  0  0  0  0  0  0
    8.9698    6.0023   -0.7599 H   0  0  0  0  0  0  0  0  0  0  0  0
    0.3983   -0.8918   -2.8663 H   0  0  0  0  0  0  0  0  0  0  0  0
   -1.9518    0.9580   -2.1212 H   0  0  0  0  0  0  0  0  0  0  0  0
   -2.7453   -0.4679    0.3407 H   0  0  0  0  0  0  0  0  0  0  0  0
   -3.6644    2.0092    1.6341 H   0  0  0  0  0  0  0  0  0  0  0  0
   -4.1010   -0.2313    1.8038 H   0  0  0  0  0  0  0  0  0  0  0  0
   -5.6022   -0.2382    0.8472 H   0  0  0  0  0  0  0  0  0  0  0  0
   -4.0054    0.5476    3.9888 H   0  0  0  0  0  0  0  0  0  0  0  0
   -5.1663    1.0295    6.0905 H   0  0  0  0  0  0  0  0  0  0  0  0
   -7.5977    1.4812    6.0928 H   0  0  0  0  0  0  0  0  0  0  0  0
   -8.7921    1.4272    3.9272 H   0  0  0  0  0  0  0  0  0  0  0  0
   -7.6515    0.9500    1.8263 H   0  0  0  0  0  0  0  0  0  0  0  0
   -6.2865    2.6120    0.2616 H   0  0  0  0  0  0  0  0  0  0  0  0
   -6.4039    5.3736    1.9083 H   0  0  0  0  0  0  0  0  0  0  0  0
   -5.2617    6.0523    0.7048 H   0  0  0  0  0  0  0  0  0  0  0  0
   -6.5752    4.9005    0.1622 H   0  0  0  0  0  0  0  0  0  0  0  0
   -3.5616   -0.3954   -2.9370 H   0  0  0  0  0  0  0  0  0  0  0  0
   -1.9649   -0.7740   -3.5660 H   0  0  0  0  0  0  0  0  0  0  0  0
   -1.0303   -2.9756   -3.3283 H   0  0  0  0  0  0  0  0  0  0  0  0
   -1.5849   -5.3764   -3.0457 H   0  0  0  0  0  0  0  0  0  0  0  0
   -3.7243   -6.0589   -2.0436 H   0  0  0  0  0  0  0  0  0  0  0  0
   -5.2929   -4.3520   -1.3314 H   0  0  0  0  0  0  0  0  0  0  0  0
   -4.7676   -2.0065   -1.6037 H   0  0  0  0  0  0  0  0  0  0  0  0
    2.5754   -6.0116    2.1436 H   0  0  0  0  0  0  0  0  0  0  0  0
    1.8222   -4.9287    3.3992 H   0  0  0  0  0  0  0  0  0  0  0  0
  1  2  1  0
  2  3  2  3
  3  4  1  0
  4  5  1  0
  5  6  1  0
  6  7  1  0
  7  8  1  0
  8  9  2  0
  8 10  1  0
 10 11  1  0
 11 12  1  0
 12 13  2  0
 12 14  1  0
 11 15  1  0
 15 16  1  0
 16 17  2  0
 17 18  1  0
 18 19  1  0
 19 20  2  0
 20 21  1  0
 21 22  2  0
 22 23  1  0
 23 24  2  0
  7 25  1  0
 25 26  1  0
 26 27  2  0
 26 28  1  0
 28 29  1  0
 29 30  1  0
 30 31  2  0
 30 32  1  0
 32 33  1  0
 33 34  1  0
 34 35  2  0
 35 36  1  0
 36 37  2  0
 37 38  1  0
 38 39  2  0
 32 40  1  0
 40 41  1  0
 41 42  2  0
 41 43  1  0
 28 44  1  0
 44 45  1  0
 45 46  2  0
 46 47  1  0
 47 48  2  0
 48 49  1  0
 49 50  2  0
  2 51  1  0
 20 16  1  0
 39 34  1  0
 50 45  1  0
 24 19  1  0
  1 52  1  0
  1 53  1  0
  4 54  1  0
  4 55  1  0
  5 56  1  0
  5 57  1  0
  6 58  1  0
  6 59  1  0
  7 60  1  1
 10 61  1  0
 11 62  1  6
 14 63  1  0
 14 64  1  0
 15 65  1  0
 15 66  1  0
 17 67  1  0
 18 68  1  0
 21 69  1  0
 22 70  1  0
 23 71  1  0
 24 72  1  0
 25 73  1  0
 28 74  1  6
 29 75  1  0
 32 76  1  1
 33 77  1  0
 33 78  1  0
 35 79  1  0
 36 80  1  0
 37 81  1  0
 38 82  1  0
 39 83  1  0
 40 84  1  0
 43 85  1  0
 43 86  1  0
 43 87  1  0
 44 88  1  0
 44 89  1  0
 46 90  1  0
 47 91  1  0
 48 92  1  0
 49 93  1  0
 50 94  1  0
 51 95  1  0
 51 96  1  0
M  END
>  <Ligand ID>  (1) 
LIG0001396

>  <Ligand>  (1) 
CHEMBL327479

>  <SMILES>  (1) 
NC(=NCCC[C@@H](C(=O)N[C@H](C(=O)N)Cc1c[nH]c2c1cccc2)NC(=O)[C@H](NC(=O)[C@H](Cc1ccccc1)NC(=O)C)Cc1ccccc1)N

>  <CID>  (1) 
10952584.0

>  <ChEMBL ID>  (1) 
nan

>  <InChiKey>  (1) 
MFTYXDJIYBBSIZ-RTNMLALUSA-N

>  <InChi>  (1) 
InChI=1S/C37H45N9O5/c1-23(47)43-31(19-24-11-4-2-5-12-24)35(50)46-32(20-25-13-6-3-7-14-25)36(51)44-29(17-10-18-41-37(39)40)34(49)45-30(33(38)48)21-26-22-42-28-16-9-8-15-27(26)28/h2-9,11-16,22,29-32,42H,10,17-21H2,1H3,(H2,38,48)(H,43,47)(H,44,51)(H,45,49)(H,46,50)(H4,39,40,41)/t29-,30-,31-,32+/m0/s1

>  <IUPAC Name>  (1) 
(2S)-2-[[(2R)-2-[[(2S)-2-acetamido-3-phenylpropanoyl]amino]-3-phenylpropanoyl]amino]-N-[(2S)-1-amino-3-(1H-indol-3-yl)-1-oxopropan-2-yl]-5-(diaminomethylideneamino)pentanamide

$$$$
