
     RDKit          3D

 94 97  0  0  0  0  0  0  0  0999 V2000
   -4.4266   -5.0770   -1.4302 O   0  0  0  0  0  0  0  0  0  0  0  0
   -5.4630   -4.3317   -0.9154 C   0  0  0  0  0  0  0  0  0  0  0  0
   -4.9874   -3.0163   -0.4149 C   0  0  0  0  0  0  0  0  0  0  0  0
   -5.8087   -2.2070    0.0899 O   0  0  0  0  0  0  0  0  0  0  0  0
   -3.6210   -2.6532   -0.4946 N   0  0  0  0  0  0  0  0  0  0  0  0
   -3.2274   -1.3567    0.0152 C   0  0  2  0  0  0  0  0  0  0  0  0
   -2.5272   -0.6529   -1.0936 C   0  0  0  0  0  0  0  0  0  0  0  0
   -2.4140   -1.2257   -2.2325 O   0  0  0  0  0  0  0  0  0  0  0  0
   -2.0131    0.6301   -0.8326 N   0  0  0  0  0  0  0  0  0  0  0  0
   -1.3087    1.4655   -1.7625 C   0  0  2  0  0  0  0  0  0  0  0  0
    0.0879    1.7809   -1.3691 C   0  0  0  0  0  0  0  0  0  0  0  0
    0.7169    2.5566   -2.1665 O   0  0  0  0  0  0  0  0  0  0  0  0
    0.7021    1.2647   -0.1870 N   0  0  0  0  0  0  0  0  0  0  0  0
    2.0789    1.6487    0.1175 C   0  0  2  0  0  0  0  0  0  0  0  0
    3.0049    0.5426   -0.3832 C   0  0  0  0  0  0  0  0  0  0  0  0
    4.2523    0.6619   -0.2589 O   0  0  0  0  0  0  0  0  0  0  0  0
    2.4395   -0.6286   -0.9946 N   0  0  0  0  0  0  0  0  0  0  0  0
    3.3371   -1.6637   -1.4688 C   0  0  2  0  0  0  0  0  0  0  0  0
    3.0541   -2.0366   -2.8760 C   0  0  0  0  0  0  0  0  0  0  0  0
    2.0976   -1.4407   -3.4824 O   0  0  0  0  0  0  0  0  0  0  0  0
    3.8434   -3.0338   -3.5062 N   0  0  0  0  0  0  0  0  0  0  0  0
    3.2702   -2.9123   -0.6009 C   0  0  0  0  0  0  0  0  0  0  0  0
    3.6626   -2.5578    0.8110 C   0  0  0  0  0  0  0  0  0  0  0  0
    2.8267   -2.3952    1.8744 C   0  0  0  0  0  0  0  0  0  0  0  0
    3.6245   -2.0795    2.9268 N   0  0  0  0  0  0  0  0  0  0  0  0
    4.9021   -2.0431    2.5527 C   0  0  0  0  0  0  0  0  0  0  0  0
    4.9668   -2.3433    1.2080 C   0  0  0  0  0  0  0  0  0  0  0  0
    6.1518   -2.3882    0.5172 C   0  0  0  0  0  0  0  0  0  0  0  0
    7.3199   -2.1150    1.2285 C   0  0  0  0  0  0  0  0  0  0  0  0
    7.3144   -1.8100    2.5695 C   0  0  0  0  0  0  0  0  0  0  0  0
    6.0847   -1.7835    3.1992 C   0  0  0  0  0  0  0  0  0  0  0  0
    2.3125    1.8944    1.5535 C   0  0  0  0  0  0  0  0  0  0  0  0
    1.4720    2.9724    2.1501 C   0  0  0  0  0  0  0  0  0  0  0  0
    1.6567    4.3249    1.5819 C   0  0  0  0  0  0  0  0  0  0  0  0
    1.3477    4.4723    0.1866 N   0  0  0  0  0  0  0  0  0  0  0  0
    1.0074    5.6146   -0.3184 C   0  0  0  0  0  0  0  0  0  0  0  0
    0.6944    5.8166   -1.6732 N   0  0  0  0  0  0  0  0  0  0  0  0
    0.9397    6.7722    0.5398 N   0  0  0  0  0  0  0  0  0  0  0  0
   -2.1091    2.7365   -1.9524 C   0  0  0  0  0  0  0  0  0  0  0  0
   -3.4666    2.4925   -2.4920 C   0  0  0  0  0  0  0  0  0  0  0  0
   -4.5646    2.2653   -1.6880 C   0  0  0  0  0  0  0  0  0  0  0  0
   -5.8014    2.0596   -2.2945 C   0  0  0  0  0  0  0  0  0  0  0  0
   -5.9755    2.0725   -3.6515 C   0  0  0  0  0  0  0  0  0  0  0  0
   -4.8579    2.3025   -4.4376 C   0  0  0  0  0  0  0  0  0  0  0  0
   -3.6312    2.5081   -3.8837 C   0  0  0  0  0  0  0  0  0  0  0  0
   -2.2673   -1.6269    1.1700 C   0  0  0  0  0  0  0  0  0  0  0  0
   -2.9238   -2.4216    2.2353 C   0  0  0  0  0  0  0  0  0  0  0  0
   -3.6007   -1.9337    3.2893 N   0  0  0  0  0  0  0  0  0  0  0  0
   -4.0517   -2.9797    4.0403 C   0  0  0  0  0  0  0  0  0  0  0  0
   -3.6629   -4.1176    3.4657 N   0  0  0  0  0  0  0  0  0  0  0  0
   -2.9694   -3.7932    2.3565 C   0  0  0  0  0  0  0  0  0  0  0  0
   -4.3228   -5.9349   -0.9398 H   0  0  0  0  0  0  0  0  0  0  0  0
   -5.9578   -4.8808   -0.0783 H   0  0  0  0  0  0  0  0  0  0  0  0
   -6.1804   -4.1135   -1.7297 H   0  0  0  0  0  0  0  0  0  0  0  0
   -2.8953   -3.2804   -0.9032 H   0  0  0  0  0  0  0  0  0  0  0  0
   -4.1022   -0.7996    0.3944 H   0  0  0  0  0  0  0  0  0  0  0  0
   -2.1481    1.0387    0.1424 H   0  0  0  0  0  0  0  0  0  0  0  0
   -1.2241    0.9931   -2.7760 H   0  0  0  0  0  0  0  0  0  0  0  0
    0.1472    0.6240    0.4310 H   0  0  0  0  0  0  0  0  0  0  0  0
    2.3270    2.5215   -0.4946 H   0  0  0  0  0  0  0  0  0  0  0  0
    1.4234   -0.7351   -1.0963 H   0  0  0  0  0  0  0  0  0  0  0  0
    4.3761   -1.2754   -1.3112 H   0  0  0  0  0  0  0  0  0  0  0  0
    3.5732   -4.0491   -3.5465 H   0  0  0  0  0  0  0  0  0  0  0  0
    4.7407   -2.6998   -3.9457 H   0  0  0  0  0  0  0  0  0  0  0  0
    2.3035   -3.4218   -0.6282 H   0  0  0  0  0  0  0  0  0  0  0  0
    4.0651   -3.5992   -0.9566 H   0  0  0  0  0  0  0  0  0  0  0  0
    1.7611   -2.4894    1.9067 H   0  0  0  0  0  0  0  0  0  0  0  0
    3.2573   -1.8983    3.8761 H   0  0  0  0  0  0  0  0  0  0  0  0
    6.2534   -2.6131   -0.5136 H   0  0  0  0  0  0  0  0  0  0  0  0
    8.2775   -2.1452    0.6947 H   0  0  0  0  0  0  0  0  0  0  0  0
    8.2497   -1.6099    3.0587 H   0  0  0  0  0  0  0  0  0  0  0  0
    6.0983   -1.5408    4.2546 H   0  0  0  0  0  0  0  0  0  0  0  0
    2.2962    0.9617    2.1734 H   0  0  0  0  0  0  0  0  0  0  0  0
    3.3909    2.2606    1.6344 H   0  0  0  0  0  0  0  0  0  0  0  0
    1.5879    3.0252    3.2635 H   0  0  0  0  0  0  0  0  0  0  0  0
    0.4011    2.6785    1.9764 H   0  0  0  0  0  0  0  0  0  0  0  0
    2.6991    4.7212    1.7047 H   0  0  0  0  0  0  0  0  0  0  0  0
    1.0183    5.0797    2.1348 H   0  0  0  0  0  0  0  0  0  0  0  0
   -0.3025    5.9860   -1.9588 H   0  0  0  0  0  0  0  0  0  0  0  0
    1.4101    5.8111   -2.4505 H   0  0  0  0  0  0  0  0  0  0  0  0
    1.6668    7.5038    0.5551 H   0  0  0  0  0  0  0  0  0  0  0  0
    0.1164    6.8700    1.1711 H   0  0  0  0  0  0  0  0  0  0  0  0
   -2.2521    3.2703   -0.9739 H   0  0  0  0  0  0  0  0  0  0  0  0
   -1.5893    3.4107   -2.6835 H   0  0  0  0  0  0  0  0  0  0  0  0
   -4.4290    2.2548   -0.6159 H   0  0  0  0  0  0  0  0  0  0  0  0
   -6.6630    1.8814   -1.6471 H   0  0  0  0  0  0  0  0  0  0  0  0
   -6.9119    1.9195   -4.1603 H   0  0  0  0  0  0  0  0  0  0  0  0
   -4.9527    2.3220   -5.5269 H   0  0  0  0  0  0  0  0  0  0  0  0
   -2.7506    2.6895   -4.4952 H   0  0  0  0  0  0  0  0  0  0  0  0
   -2.0124   -0.6372    1.6145 H   0  0  0  0  0  0  0  0  0  0  0  0
   -1.3496   -2.1123    0.8350 H   0  0  0  0  0  0  0  0  0  0  0  0
   -3.7459   -0.9059    3.4822 H   0  0  0  0  0  0  0  0  0  0  0  0
   -4.6292   -2.8138    4.9489 H   0  0  0  0  0  0  0  0  0  0  0  0
   -2.5112   -4.4984    1.6572 H   0  0  0  0  0  0  0  0  0  0  0  0
  1  2  1  0
  2  3  1  0
  3  4  2  0
  3  5  1  0
  5  6  1  0
  6  7  1  0
  7  8  2  0
  7  9  1  0
  9 10  1  0
 10 11  1  0
 11 12  2  0
 11 13  1  0
 13 14  1  0
 14 15  1  0
 15 16  2  0
 15 17  1  0
 17 18  1  0
 18 19  1  0
 19 20  2  0
 19 21  1  0
 18 22  1  0
 22 23  1  0
 23 24  2  0
 24 25  1  0
 25 26  1  0
 26 27  2  0
 27 28  1  0
 28 29  2  0
 29 30  1  0
 30 31  2  0
 14 32  1  0
 32 33  1  0
 33 34  1  0
 34 35  1  0
 35 36  2  3
 36 37  1  0
 36 38  1  0
 10 39  1  0
 39 40  1  0
 40 41  2  0
 41 42  1  0
 42 43  2  0
 43 44  1  0
 44 45  2  0
  6 46  1  0
 46 47  1  0
 47 48  1  0
 48 49  1  0
 49 50  2  0
 50 51  1  0
 27 23  1  0
 45 40  1  0
 51 47  2  0
 31 26  1  0
  1 52  1  0
  2 53  1  0
  2 54  1  0
  5 55  1  0
  6 56  1  1
  9 57  1  0
 10 58  1  6
 13 59  1  0
 14 60  1  6
 17 61  1  0
 18 62  1  6
 21 63  1  0
 21 64  1  0
 22 65  1  0
 22 66  1  0
 24 67  1  0
 25 68  1  0
 28 69  1  0
 29 70  1  0
 30 71  1  0
 31 72  1  0
 32 73  1  0
 32 74  1  0
 33 75  1  0
 33 76  1  0
 34 77  1  0
 34 78  1  0
 37 79  1  0
 37 80  1  0
 38 81  1  0
 38 82  1  0
 39 83  1  0
 39 84  1  0
 41 85  1  0
 42 86  1  0
 43 87  1  0
 44 88  1  0
 45 89  1  0
 46 90  1  0
 46 91  1  0
 48 92  1  0
 49 93  1  0
 51 94  1  0
M  END
>  <Ligand ID>  (1) 
LIG0002646

>  <Ligand>  (1) 
CHEMBL316038

>  <SMILES>  (1) 
OCC(=O)N[C@H](C(=O)N[C@H](C(=O)N[C@H](C(=O)N[C@H](C(=O)N)Cc1c[nH]c2c1cccc2)CCCN=C(N)N)Cc1ccccc1)Cc1[nH]cnc1

>  <CID>  (1) 
44322924.0

>  <ChEMBL ID>  (1) 
nan

>  <InChiKey>  (1) 
NTLXAVKHHNPHLL-LJWNLINESA-N

>  <InChi>  (1) 
InChI=1S/C34H43N11O6/c35-30(48)26(14-21-16-40-24-10-5-4-9-23(21)24)44-31(49)25(11-6-12-39-34(36)37)43-32(50)27(13-20-7-2-1-3-8-20)45-33(51)28(42-29(47)18-46)15-22-17-38-19-41-22/h1-5,7-10,16-17,19,25-28,40,46H,6,11-15,18H2,(H2,35,48)(H,38,41)(H,42,47)(H,43,50)(H,44,49)(H,45,51)(H4,36,37,39)/t25-,26-,27-,28-/m0/s1

>  <IUPAC Name>  (1) 
(2S)-N-[(2S)-1-amino-3-(1H-indol-3-yl)-1-oxopropan-2-yl]-5-(diaminomethylideneamino)-2-[[(2S)-2-[[(2S)-2-[(2-hydroxyacetyl)amino]-3-(1H-imidazol-5-yl)propanoyl]amino]-3-phenylpropanoyl]amino]pentanamide

$$$$
