
     RDKit          3D

 80 80  0  0  0  0  0  0  0  0999 V2000
   -1.0098   -0.0382    0.0841 C   0  0  0  0  0  0  0  0  0  0  0  0
    0.4520    0.2311   -0.1255 C   0  0  0  0  0  0  0  0  0  0  0  0
    0.8119    1.3804   -0.4901 O   0  0  0  0  0  0  0  0  0  0  0  0
    1.3947   -0.7888    0.0842 O   0  0  0  0  0  0  0  0  0  0  0  0
   10.6526    0.1507   -2.5822 O   0  0  0  0  0  0  0  0  0  0  0  0
    9.7271    1.0703   -2.0351 C   0  0  0  0  0  0  0  0  0  0  0  0
    8.8855    0.3641   -1.0436 C   0  0  0  0  0  0  0  0  0  0  0  0
    7.5985    0.0142   -1.3845 C   0  0  0  0  0  0  0  0  0  0  0  0
    6.7497   -0.6595   -0.4955 C   0  0  0  0  0  0  0  0  0  0  0  0
    7.1751   -1.0005    0.7650 C   0  0  0  0  0  0  0  0  0  0  0  0
    8.4711   -0.6508    1.1139 C   0  0  0  0  0  0  0  0  0  0  0  0
    9.3108    0.0210    0.2210 C   0  0  0  0  0  0  0  0  0  0  0  0
   10.6114    0.3780    0.5604 O   0  0  0  0  0  0  0  0  0  0  0  0
    5.3953   -0.9568   -1.0257 C   0  0  1  0  0  0  0  0  0  0  0  0
    4.5081   -1.4218    0.0698 C   0  0  0  0  0  0  0  0  0  0  0  0
    3.1535   -1.6820   -0.3296 N   0  0  0  0  0  0  0  0  0  0  0  0
    2.3575   -0.5755   -0.6972 C   0  0  0  0  0  0  0  0  0  0  0  0
    1.0094   -1.1043   -1.2036 C   0  0  0  0  0  0  0  0  0  0  0  0
    0.1564    0.0409   -1.6159 C   0  0  0  0  0  0  0  0  0  0  0  0
   -0.1824    0.9781   -0.4995 C   0  0  0  0  0  0  0  0  0  0  0  0
   -0.9812    0.2559    0.5824 C   0  0  0  0  0  0  0  0  0  0  0  0
   -1.3076    1.2613    1.6559 C   0  0  0  0  0  0  0  0  0  0  0  0
   -2.0285    0.8787    2.6877 O   0  0  0  0  0  0  0  0  0  0  0  0
   -3.2564    0.4198    2.8069 C   0  0  0  0  0  0  0  0  0  0  0  0
   -4.4016    1.2833    2.4183 C   0  0  0  0  0  0  0  0  0  0  0  0
   -4.4945    1.6137    0.9926 C   0  0  0  0  0  0  0  0  0  0  0  0
   -4.7514    0.3789    0.1515 C   0  0  0  0  0  0  0  0  0  0  0  0
   -6.1008   -0.1749    0.5156 C   0  0  0  0  0  0  0  0  0  0  0  0
   -6.3137   -1.1222    1.4661 C   0  0  0  0  0  0  0  0  0  0  0  0
   -7.6344   -1.5288    1.6670 C   0  0  0  0  0  0  0  0  0  0  0  0
   -8.6833   -1.0060    0.9457 C   0  0  0  0  0  0  0  0  0  0  0  0
   -8.4629   -0.0361   -0.0263 C   0  0  0  0  0  0  0  0  0  0  0  0
   -7.1633    0.3621   -0.2214 C   0  0  0  0  0  0  0  0  0  0  0  0
   -9.7199    0.6723   -0.9826 S   0  0  0  0  0  0  0  0  0  0  0  0
  -10.9992    0.7927   -0.2447 O   0  0  0  0  0  0  0  0  0  0  0  0
   -9.2763    2.0371   -1.4685 O   0  0  0  0  0  0  0  0  0  0  0  0
   -9.8999   -0.3030   -2.4197 N   0  0  0  0  0  0  0  0  0  0  0  0
    4.9877    0.2370   -1.6395 O   0  0  0  0  0  0  0  0  0  0  0  0
   -1.1986   -1.1174    0.1837 H   0  0  0  0  0  0  0  0  0  0  0  0
   -1.2840    0.4543    1.0301 H   0  0  0  0  0  0  0  0  0  0  0  0
   -1.5291    0.4119   -0.8070 H   0  0  0  0  0  0  0  0  0  0  0  0
    2.3629   -0.5333    0.0407 H   0  0  0  0  0  0  0  0  0  0  0  0
   10.3210   -0.7808   -2.4406 H   0  0  0  0  0  0  0  0  0  0  0  0
   10.2796    1.8920   -1.5498 H   0  0  0  0  0  0  0  0  0  0  0  0
    9.1083    1.3931   -2.8779 H   0  0  0  0  0  0  0  0  0  0  0  0
    7.2544    0.2832   -2.3870 H   0  0  0  0  0  0  0  0  0  0  0  0
    6.5055   -1.5209    1.4368 H   0  0  0  0  0  0  0  0  0  0  0  0
    8.8617   -0.8994    2.1079 H   0  0  0  0  0  0  0  0  0  0  0  0
   10.8554    1.3570    0.5580 H   0  0  0  0  0  0  0  0  0  0  0  0
    5.5555   -1.7612   -1.7762 H   0  0  0  0  0  0  0  0  0  0  0  0
    4.4925   -0.7145    0.9031 H   0  0  0  0  0  0  0  0  0  0  0  0
    4.9323   -2.3713    0.4551 H   0  0  0  0  0  0  0  0  0  0  0  0
    2.6869   -2.3128    0.3457 H   0  0  0  0  0  0  0  0  0  0  0  0
    2.1969    0.0579    0.2249 H   0  0  0  0  0  0  0  0  0  0  0  0
    2.7094    0.0938   -1.4690 H   0  0  0  0  0  0  0  0  0  0  0  0
    1.2375   -1.7403   -2.0802 H   0  0  0  0  0  0  0  0  0  0  0  0
    0.5947   -1.7159   -0.3843 H   0  0  0  0  0  0  0  0  0  0  0  0
   -0.7496   -0.2711   -2.1842 H   0  0  0  0  0  0  0  0  0  0  0  0
    0.7610    0.6411   -2.3561 H   0  0  0  0  0  0  0  0  0  0  0  0
    0.7492    1.4284   -0.1068 H   0  0  0  0  0  0  0  0  0  0  0  0
   -0.7996    1.8142   -0.8956 H   0  0  0  0  0  0  0  0  0  0  0  0
   -1.8407   -0.2003    0.0954 H   0  0  0  0  0  0  0  0  0  0  0  0
   -0.3869   -0.5844    1.0114 H   0  0  0  0  0  0  0  0  0  0  0  0
   -0.2510    1.5065    2.0916 H   0  0  0  0  0  0  0  0  0  0  0  0
   -1.5297    2.2434    1.1659 H   0  0  0  0  0  0  0  0  0  0  0  0
   -3.3928    0.0828    3.8978 H   0  0  0  0  0  0  0  0  0  0  0  0
   -3.3528   -0.5847    2.2719 H   0  0  0  0  0  0  0  0  0  0  0  0
   -5.3525    0.7424    2.7239 H   0  0  0  0  0  0  0  0  0  0  0  0
   -4.3931    2.1991    3.0766 H   0  0  0  0  0  0  0  0  0  0  0  0
   -5.4257    2.2912    0.8969 H   0  0  0  0  0  0  0  0  0  0  0  0
   -3.6996    2.2226    0.5700 H   0  0  0  0  0  0  0  0  0  0  0  0
   -4.0450   -0.4466    0.3771 H   0  0  0  0  0  0  0  0  0  0  0  0
   -4.7365    0.6219   -0.9154 H   0  0  0  0  0  0  0  0  0  0  0  0
   -5.5002   -1.5362    2.0293 H   0  0  0  0  0  0  0  0  0  0  0  0
   -7.8478   -2.2819    2.4129 H   0  0  0  0  0  0  0  0  0  0  0  0
   -9.7173   -1.3011    1.0781 H   0  0  0  0  0  0  0  0  0  0  0  0
   -6.9799    1.1255   -0.9801 H   0  0  0  0  0  0  0  0  0  0  0  0
   -8.9780   -0.7423   -2.6212 H   0  0  0  0  0  0  0  0  0  0  0  0
  -10.5832   -1.0625   -2.2661 H   0  0  0  0  0  0  0  0  0  0  0  0
    5.3677    1.0059   -1.1445 H   0  0  0  0  0  0  0  0  0  0  0  0
  1  2  1  0
  2  3  2  0
  2  4  1  0
  5  6  1  0
  6  7  1  0
  7  8  2  0
  8  9  1  0
  9 10  2  0
 10 11  1  0
 11 12  2  0
 12 13  1  0
  9 14  1  0
 14 15  1  0
 15 16  1  0
 16 17  1  0
 17 18  1  0
 18 19  1  0
 19 20  1  0
 20 21  1  0
 21 22  1  0
 22 23  1  0
 23 24  1  0
 24 25  1  0
 25 26  1  0
 26 27  1  0
 27 28  1  0
 28 29  2  0
 29 30  1  0
 30 31  2  0
 31 32  1  0
 32 33  2  0
 32 34  1  0
 34 35  2  0
 34 36  2  0
 34 37  1  0
 14 38  1  0
 12  7  1  0
 33 28  1  0
  1 39  1  0
  1 40  1  0
  1 41  1  0
  4 42  1  0
  5 43  1  0
  6 44  1  0
  6 45  1  0
  8 46  1  0
 10 47  1  0
 11 48  1  0
 13 49  1  0
 14 50  1  6
 15 51  1  0
 15 52  1  0
 16 53  1  0
 17 54  1  0
 17 55  1  0
 18 56  1  0
 18 57  1  0
 19 58  1  0
 19 59  1  0
 20 60  1  0
 20 61  1  0
 21 62  1  0
 21 63  1  0
 22 64  1  0
 22 65  1  0
 24 66  1  0
 24 67  1  0
 25 68  1  0
 25 69  1  0
 26 70  1  0
 26 71  1  0
 27 72  1  0
 27 73  1  0
 29 74  1  0
 30 75  1  0
 31 76  1  0
 33 77  1  0
 37 78  1  0
 37 79  1  0
 38 80  1  0
M  END
>  <Ligand ID>  (1) 
LIG0003343

>  <Ligand>  (1) 
CHEMBL475236

>  <SMILES>  (1) 
CC(=O)O.OCc1cc(ccc1O)[C@@H](CNCCCCCCOCCCCc1cccc(c1)S(=O)(=O)N)O

>  <CID>  (1) 
42625589.0

>  <ChEMBL ID>  (1) 
nan

>  <InChiKey>  (1) 
XKFYLGKZHGAFOU-VQIWEWKSSA-N

>  <InChi>  (1) 
InChI=1S/C25H38N2O6S.C2H4O2/c26-34(31,32)23-10-7-9-20(16-23)8-3-6-15-33-14-5-2-1-4-13-27-18-25(30)21-11-12-24(29)22(17-21)19-28;1-2(3)4/h7,9-12,16-17,25,27-30H,1-6,8,13-15,18-19H2,(H2,26,31,32);1H3,(H,3,4)/t25-;/m1./s1

>  <IUPAC Name>  (1) 
acetic acid;3-[4-[6-[[(2S)-2-hydroxy-2-[4-hydroxy-3-(hydroxymethyl)phenyl]ethyl]amino]hexoxy]butyl]benzenesulfonamide

$$$$
