
     RDKit          3D

 30 31  0  0  0  0  0  0  0  0999 V2000
   -3.6364    1.5904   -1.5575 O   0  0  0  0  0  0  0  0  0  0  0  0
   -3.1028    0.7366   -0.6056 C   0  0  0  0  0  0  0  0  0  0  0  0
   -3.8589    0.1584    0.2424 O   0  0  0  0  0  0  0  0  0  0  0  0
   -1.6123    0.4624   -0.5400 C   0  0  2  0  0  0  0  0  0  0  0  0
   -1.1038    0.7220    0.8212 C   0  0  2  0  0  0  0  0  0  0  0  0
    0.2852    0.5712    1.2902 C   0  0  1  0  0  0  0  0  0  0  0  0
   -0.7301   -0.3374    1.8048 C   0  0  2  0  0  0  0  0  0  0  0  0
   -0.8743   -1.7583    1.4629 C   0  0  0  0  0  0  0  0  0  0  0  0
   -0.6127   -2.2705    0.3366 O   0  0  0  0  0  0  0  0  0  0  0  0
   -1.3391   -2.7088    2.4120 O   0  0  0  0  0  0  0  0  0  0  0  0
    1.4233    0.1998    0.4339 C   0  0  0  0  0  0  0  0  0  0  0  0
    1.8962    1.0965   -0.5276 C   0  0  0  0  0  0  0  0  0  0  0  0
    2.9807    0.7803   -1.3386 C   0  0  0  0  0  0  0  0  0  0  0  0
    3.6400   -0.4254   -1.2355 C   0  0  0  0  0  0  0  0  0  0  0  0
    3.1816   -1.3126   -0.2917 C   0  0  0  0  0  0  0  0  0  0  0  0
    2.1037   -0.9976    0.5142 C   0  0  0  0  0  0  0  0  0  0  0  0
   -0.9981    1.2356   -1.6016 N   0  0  0  0  0  0  0  0  0  0  0  0
   -4.6135    1.8594   -1.3872 H   0  0  0  0  0  0  0  0  0  0  0  0
   -1.5355   -0.6027   -0.8014 H   0  0  0  0  0  0  0  0  0  0  0  0
   -1.6894    1.5772    1.3094 H   0  0  0  0  0  0  0  0  0  0  0  0
    0.6123    1.4073    2.0016 H   0  0  0  0  0  0  0  0  0  0  0  0
   -1.0536   -0.1603    2.8934 H   0  0  0  0  0  0  0  0  0  0  0  0
   -1.6554   -3.6255    2.1182 H   0  0  0  0  0  0  0  0  0  0  0  0
    1.4622    2.0665   -0.6865 H   0  0  0  0  0  0  0  0  0  0  0  0
    3.3548    1.4789   -2.0933 H   0  0  0  0  0  0  0  0  0  0  0  0
    4.4820   -0.6787   -1.8610 H   0  0  0  0  0  0  0  0  0  0  0  0
    3.7039   -2.2601   -0.2143 H   0  0  0  0  0  0  0  0  0  0  0  0
    1.8228   -1.7468    1.2416 H   0  0  0  0  0  0  0  0  0  0  0  0
   -1.1942    0.7203   -2.4956 H   0  0  0  0  0  0  0  0  0  0  0  0
   -1.3387    2.2220   -1.6452 H   0  0  0  0  0  0  0  0  0  0  0  0
  1  2  1  0
  2  3  2  0
  2  4  1  0
  4  5  1  0
  5  6  1  0
  6  7  1  0
  7  8  1  0
  8  9  2  0
  8 10  1  0
  6 11  1  0
 11 12  2  0
 12 13  1  0
 13 14  2  0
 14 15  1  0
 15 16  2  0
  4 17  1  0
  7  5  1  0
 16 11  1  0
  1 18  1  0
  4 19  1  6
  5 20  1  1
  6 21  1  1
  7 22  1  1
 10 23  1  0
 12 24  1  0
 13 25  1  0
 14 26  1  0
 15 27  1  0
 16 28  1  0
 17 29  1  0
 17 30  1  0
M  END
>  <Ligand ID>  (1) 
LIG0002593

>  <Ligand>  (1) 
CHEMBL2114112

>  <SMILES>  (1) 
OC(=O)[C@H]([C@@H]1[C@@H]([C@@H]1C(=O)O)c1ccccc1)N

>  <CID>  (1) 
10752213.0

>  <ChEMBL ID>  (1) 
nan

>  <InChiKey>  (1) 
IFLWVSHRWAIVQF-JXUBOQSCSA-N

>  <InChi>  (1) 
InChI=1S/C12H13NO4/c13-10(12(16)17)8-7(9(8)11(14)15)6-4-2-1-3-5-6/h1-5,7-10H,13H2,(H,14,15)(H,16,17)/t7-,8+,9-,10-/m0/s1

>  <IUPAC Name>  (1) 
(1S,2R,3S)-2-[(S)-amino(carboxy)methyl]-3-phenylcyclopropane-1-carboxylic acid

$$$$
