
     RDKit          3D

 80 82  0  0  0  0  0  0  0  0999 V2000
    5.4094   -1.0961    0.1952 O   0  0  0  0  0  0  0  0  0  0  0  0
    4.5120   -0.2146    0.2953 C   0  0  0  0  0  0  0  0  0  0  0  0
    3.1448   -0.5885    0.4808 N   0  0  0  0  0  0  0  0  0  0  0  0
    2.8565   -2.0446    0.5810 C   0  0  2  0  0  0  0  0  0  0  0  0
    1.3970   -2.1591    0.3570 C   0  0  0  0  0  0  0  0  0  0  0  0
    0.8194   -3.1737    0.8864 O   0  0  0  0  0  0  0  0  0  0  0  0
    0.5883   -1.2756   -0.3568 N   0  0  0  0  0  0  0  0  0  0  0  0
   -0.8136   -1.2678   -0.5424 C   0  0  1  0  0  0  0  0  0  0  0  0
   -1.2928    0.0779   -0.9642 C   0  0  0  0  0  0  0  0  0  0  0  0
   -0.3612    0.9521   -1.1064 O   0  0  0  0  0  0  0  0  0  0  0  0
   -2.6258    0.4171   -1.2054 N   0  0  0  0  0  0  0  0  0  0  0  0
   -3.0663    1.7427   -1.6656 C   0  0  1  0  0  0  0  0  0  0  0  0
   -3.8417    1.6156   -2.9058 C   0  0  0  0  0  0  0  0  0  0  0  0
   -4.0796    0.4785   -3.4640 O   0  0  0  0  0  0  0  0  0  0  0  0
   -4.4129    2.7220   -3.6167 N   0  0  0  0  0  0  0  0  0  0  0  0
   -3.8138    2.4558   -0.5805 C   0  0  0  0  0  0  0  0  0  0  0  0
   -5.0425    1.7176   -0.1265 C   0  0  0  0  0  0  0  0  0  0  0  0
   -5.7673    2.5229    0.9420 C   0  0  0  0  0  0  0  0  0  0  0  0
   -6.2031    3.7839    0.4632 N   0  0  0  0  0  0  0  0  0  0  0  0
   -7.0716    4.0439   -0.4351 C   0  0  0  0  0  0  0  0  0  0  0  0
   -7.7830    3.0351   -1.1365 N   0  0  0  0  0  0  0  0  0  0  0  0
   -7.3730    5.3961   -0.7869 N   0  0  0  0  0  0  0  0  0  0  0  0
   -1.5168   -2.2627   -1.3689 C   0  0  0  0  0  0  0  0  0  0  0  0
   -1.4335   -3.6812   -0.9889 C   0  0  0  0  0  0  0  0  0  0  0  0
   -2.1886   -4.0753    0.0988 C   0  0  0  0  0  0  0  0  0  0  0  0
   -2.2081   -5.3940    0.4599 C   0  0  0  0  0  0  0  0  0  0  0  0
   -1.4961   -6.3422   -0.2310 C   0  0  0  0  0  0  0  0  0  0  0  0
   -0.7405   -5.9204   -1.3267 C   0  0  0  0  0  0  0  0  0  0  0  0
   -0.6816   -4.6043   -1.7377 C   0  0  0  0  0  0  0  0  0  0  0  0
    3.1387   -2.2805    2.0886 C   0  0  0  0  0  0  0  0  0  0  0  0
    3.0650   -3.6760    2.4845 C   0  0  0  0  0  0  0  0  0  0  0  0
    3.0059   -4.8164    1.7480 C   0  0  0  0  0  0  0  0  0  0  0  0
    3.0712   -5.9233    2.5279 N   0  0  0  0  0  0  0  0  0  0  0  0
    3.1713   -5.4482    3.7791 C   0  0  0  0  0  0  0  0  0  0  0  0
    3.1688   -4.0966    3.7818 N   0  0  0  0  0  0  0  0  0  0  0  0
    4.9460    1.1855    0.2282 C   0  0  0  0  0  0  0  0  0  0  0  0
    6.1998    1.5520    0.0949 C   0  0  0  0  0  0  0  0  0  0  0  0
    6.6754    2.9128    0.0312 C   0  0  0  0  0  0  0  0  0  0  0  0
    8.0441    3.1714   -0.0872 C   0  0  0  0  0  0  0  0  0  0  0  0
    8.5581    4.4478   -0.1047 C   0  0  0  0  0  0  0  0  0  0  0  0
    7.6214    5.4687    0.0058 C   0  0  0  0  0  0  0  0  0  0  0  0
    6.2723    5.2502    0.1197 C   0  0  0  0  0  0  0  0  0  0  0  0
    5.7741    3.9607    0.1350 C   0  0  0  0  0  0  0  0  0  0  0  0
    5.1224    6.5916    0.2253 Cl  0  0  0  0  0  0  0  0  0  0  0  0
    2.4076    0.1298    0.5407 H   0  0  0  0  0  0  0  0  0  0  0  0
    3.5030   -2.6086   -0.0168 H   0  0  0  0  0  0  0  0  0  0  0  0
    1.1196   -0.4798   -0.8620 H   0  0  0  0  0  0  0  0  0  0  0  0
   -1.2392   -1.4628    0.5107 H   0  0  0  0  0  0  0  0  0  0  0  0
   -3.3884   -0.2648   -1.0579 H   0  0  0  0  0  0  0  0  0  0  0  0
   -2.1366    2.3064   -1.8537 H   0  0  0  0  0  0  0  0  0  0  0  0
   -3.8532    3.0973   -4.4138 H   0  0  0  0  0  0  0  0  0  0  0  0
   -5.3378    3.1342   -3.3572 H   0  0  0  0  0  0  0  0  0  0  0  0
   -3.1393    2.6168    0.2744 H   0  0  0  0  0  0  0  0  0  0  0  0
   -4.1263    3.4829   -0.9214 H   0  0  0  0  0  0  0  0  0  0  0  0
   -4.7693    0.7625    0.3829 H   0  0  0  0  0  0  0  0  0  0  0  0
   -5.7231    1.4471   -0.9225 H   0  0  0  0  0  0  0  0  0  0  0  0
   -6.5493    1.9336    1.4412 H   0  0  0  0  0  0  0  0  0  0  0  0
   -4.9900    2.7383    1.7391 H   0  0  0  0  0  0  0  0  0  0  0  0
   -8.7149    2.6601   -0.7802 H   0  0  0  0  0  0  0  0  0  0  0  0
   -7.4766    2.5899   -2.0257 H   0  0  0  0  0  0  0  0  0  0  0  0
   -8.1676    5.6130   -1.4552 H   0  0  0  0  0  0  0  0  0  0  0  0
   -6.8056    6.1713   -0.3788 H   0  0  0  0  0  0  0  0  0  0  0  0
   -1.3429   -2.1264   -2.4772 H   0  0  0  0  0  0  0  0  0  0  0  0
   -2.6176   -2.0022   -1.2856 H   0  0  0  0  0  0  0  0  0  0  0  0
   -2.7676   -3.3310    0.6723 H   0  0  0  0  0  0  0  0  0  0  0  0
   -2.8176   -5.6545    1.3356 H   0  0  0  0  0  0  0  0  0  0  0  0
   -1.5560   -7.3529    0.0983 H   0  0  0  0  0  0  0  0  0  0  0  0
   -0.1824   -6.6629   -1.8843 H   0  0  0  0  0  0  0  0  0  0  0  0
   -0.1038   -4.2897   -2.5942 H   0  0  0  0  0  0  0  0  0  0  0  0
    4.0757   -1.7617    2.3400 H   0  0  0  0  0  0  0  0  0  0  0  0
    2.3271   -1.6599    2.5823 H   0  0  0  0  0  0  0  0  0  0  0  0
    2.9394   -4.8032    0.6528 H   0  0  0  0  0  0  0  0  0  0  0  0
    3.2441   -6.0056    4.7047 H   0  0  0  0  0  0  0  0  0  0  0  0
    3.2286   -3.4383    4.5894 H   0  0  0  0  0  0  0  0  0  0  0  0
    4.1736    1.9261    0.2918 H   0  0  0  0  0  0  0  0  0  0  0  0
    6.9355    0.7675    0.0416 H   0  0  0  0  0  0  0  0  0  0  0  0
    8.7666    2.3555   -0.1706 H   0  0  0  0  0  0  0  0  0  0  0  0
    9.5969    4.6936   -0.1887 H   0  0  0  0  0  0  0  0  0  0  0  0
    8.0290    6.4695   -0.0045 H   0  0  0  0  0  0  0  0  0  0  0  0
    4.7099    3.8479    0.2203 H   0  0  0  0  0  0  0  0  0  0  0  0
  1  2  2  0
  2  3  1  0
  3  4  1  0
  4  5  1  0
  5  6  2  0
  5  7  1  0
  7  8  1  0
  8  9  1  0
  9 10  2  0
  9 11  1  0
 11 12  1  0
 12 13  1  0
 13 14  2  0
 13 15  1  0
 12 16  1  0
 16 17  1  0
 17 18  1  0
 18 19  1  0
 19 20  2  3
 20 21  1  0
 20 22  1  0
  8 23  1  0
 23 24  1  0
 24 25  2  0
 25 26  1  0
 26 27  2  0
 27 28  1  0
 28 29  2  0
  4 30  1  0
 30 31  1  0
 31 32  2  0
 32 33  1  0
 33 34  2  0
 34 35  1  0
  2 36  1  0
 36 37  2  0
 37 38  1  0
 38 39  2  0
 39 40  1  0
 40 41  2  0
 41 42  1  0
 42 43  2  0
 42 44  1  0
 29 24  1  0
 35 31  1  0
 43 38  1  0
  3 45  1  0
  4 46  1  6
  7 47  1  0
  8 48  1  1
 11 49  1  0
 12 50  1  6
 15 51  1  0
 15 52  1  0
 16 53  1  0
 16 54  1  0
 17 55  1  0
 17 56  1  0
 18 57  1  0
 18 58  1  0
 21 59  1  0
 21 60  1  0
 22 61  1  0
 22 62  1  0
 23 63  1  0
 23 64  1  0
 25 65  1  0
 26 66  1  0
 27 67  1  0
 28 68  1  0
 29 69  1  0
 30 70  1  0
 30 71  1  0
 32 72  1  0
 34 73  1  0
 35 74  1  0
 36 75  1  0
 37 76  1  0
 39 77  1  0
 40 78  1  0
 41 79  1  0
 43 80  1  0
M  END
>  <Ligand ID>  (1) 
LIG0001252

>  <Ligand>  (1) 
CHEMBL566162

>  <SMILES>  (1) 
O=C(N[C@H](C(=O)N[C@@H](C(=O)N[C@@H](C(=O)N)CCCN=C(N)N)Cc1ccccc1)Cc1cnc[nH]1)/C=C/c1cccc(c1)Cl

>  <CID>  (1) 
45487409.0

>  <ChEMBL ID>  (1) 
nan

>  <InChiKey>  (1) 
SZZWCXOBVKSYFY-ZUQJSNLJSA-N

>  <InChi>  (1) 
InChI=1S/C30H36ClN9O4/c31-21-9-4-8-20(14-21)11-12-26(41)38-25(16-22-17-35-18-37-22)29(44)40-24(15-19-6-2-1-3-7-19)28(43)39-23(27(32)42)10-5-13-36-30(33)34/h1-4,6-9,11-12,14,17-18,23-25H,5,10,13,15-16H2,(H2,32,42)(H,35,37)(H,38,41)(H,39,43)(H,40,44)(H4,33,34,36)/b12-11+/t23-,24-,25+/m1/s1

>  <IUPAC Name>  (1) 
(2R)-2-[[(2R)-2-[[(2S)-2-[[(E)-3-(3-chlorophenyl)prop-2-enoyl]amino]-3-(1H-imidazol-5-yl)propanoyl]amino]-3-phenylpropanoyl]amino]-5-(diaminomethylideneamino)pentanamide

$$$$
