
     RDKit          3D

 65 69  0  0  0  0  0  0  0  0999 V2000
    0.2185   -4.4611   -0.3151 C   0  0  0  0  0  0  0  0  0  0  0  0
   -1.1802   -4.5363   -0.2089 O   0  0  0  0  0  0  0  0  0  0  0  0
   -1.8478   -3.3064   -0.1055 C   0  0  0  0  0  0  0  0  0  0  0  0
   -1.1751   -2.1022   -0.1070 C   0  0  0  0  0  0  0  0  0  0  0  0
   -1.8840   -0.9264   -0.0032 C   0  0  0  0  0  0  0  0  0  0  0  0
   -3.2624   -0.9393    0.1028 C   0  0  0  0  0  0  0  0  0  0  0  0
   -3.9622   -2.1299    0.1069 C   0  0  0  0  0  0  0  0  0  0  0  0
   -3.2271   -3.2945    0.0015 C   0  0  0  0  0  0  0  0  0  0  0  0
   -3.8769   -4.5216    0.0003 O   0  0  0  0  0  0  0  0  0  0  0  0
   -5.2737   -4.6424    0.1028 C   0  0  0  0  0  0  0  0  0  0  0  0
   -3.9054    0.2379    0.2045 N   0  0  0  0  0  0  0  0  0  0  0  0
   -3.2615    1.4238    0.2070 C   0  0  0  0  0  0  0  0  0  0  0  0
   -1.9208    1.4251    0.1032 N   0  0  0  0  0  0  0  0  0  0  0  0
   -1.2143    0.2638   -0.0028 C   0  0  0  0  0  0  0  0  0  0  0  0
    0.1943    0.4047   -0.1177 N   0  0  0  0  0  0  0  0  0  0  0  0
    0.9440   -0.0011   -1.2932 C   0  0  0  0  0  0  0  0  0  0  0  0
    2.2684   -0.6189   -0.9778 C   0  0  0  0  0  0  0  0  0  0  0  0
    2.9056    0.0050    0.1870 N   0  0  0  0  0  0  0  0  0  0  0  0
    2.0850    0.1375    1.3660 C   0  0  0  0  0  0  0  0  0  0  0  0
    0.8918    0.9902    1.0105 C   0  0  0  0  0  0  0  0  0  0  0  0
    4.2585    0.4392    0.1131 C   0  0  0  0  0  0  0  0  0  0  0  0
    4.5048    1.7968    0.3136 C   0  0  0  0  0  0  0  0  0  0  0  0
    5.7878    2.2789    0.2529 C   0  0  0  0  0  0  0  0  0  0  0  0
    6.8300    1.4061   -0.0088 C   0  0  0  0  0  0  0  0  0  0  0  0
    6.5759    0.0635   -0.2059 C   0  0  0  0  0  0  0  0  0  0  0  0
    5.2920   -0.4351   -0.1477 C   0  0  0  0  0  0  0  0  0  0  0  0
    5.0560   -1.7812   -0.3477 O   0  0  0  0  0  0  0  0  0  0  0  0
    6.0868   -2.7125   -0.6179 C   0  0  0  0  0  0  0  0  0  0  0  0
   -3.9456    2.7281    0.3171 C   0  0  0  0  0  0  0  0  0  0  0  0
   -3.5724    3.6750   -0.8032 C   0  0  0  0  0  0  0  0  0  0  0  0
   -3.9715    5.0380   -0.2571 C   0  0  0  0  0  0  0  0  0  0  0  0
   -4.0907    4.8854    1.2332 C   0  0  0  0  0  0  0  0  0  0  0  0
   -3.5196    3.5154    1.5344 C   0  0  0  0  0  0  0  0  0  0  0  0
    0.6371   -5.4689   -0.3706 H   0  0  0  0  0  0  0  0  0  0  0  0
    0.5431   -3.8287   -1.1785 H   0  0  0  0  0  0  0  0  0  0  0  0
    0.5764   -3.9287    0.5930 H   0  0  0  0  0  0  0  0  0  0  0  0
   -0.1007   -2.0850   -0.1859 H   0  0  0  0  0  0  0  0  0  0  0  0
   -5.0546   -2.1309    0.1912 H   0  0  0  0  0  0  0  0  0  0  0  0
   -5.7254   -3.9770    0.8620 H   0  0  0  0  0  0  0  0  0  0  0  0
   -5.4960   -5.7043    0.3839 H   0  0  0  0  0  0  0  0  0  0  0  0
   -5.7019   -4.3768   -0.9029 H   0  0  0  0  0  0  0  0  0  0  0  0
    1.1715    0.9769   -1.8222 H   0  0  0  0  0  0  0  0  0  0  0  0
    0.3505   -0.6009   -1.9886 H   0  0  0  0  0  0  0  0  0  0  0  0
    2.1556   -1.6914   -0.8343 H   0  0  0  0  0  0  0  0  0  0  0  0
    2.9286   -0.4243   -1.8760 H   0  0  0  0  0  0  0  0  0  0  0  0
    1.6824   -0.8867    1.5850 H   0  0  0  0  0  0  0  0  0  0  0  0
    2.6090    0.4612    2.2546 H   0  0  0  0  0  0  0  0  0  0  0  0
    0.2113    1.1050    1.8966 H   0  0  0  0  0  0  0  0  0  0  0  0
    1.2995    2.0036    0.7555 H   0  0  0  0  0  0  0  0  0  0  0  0
    3.6978    2.4934    0.5189 H   0  0  0  0  0  0  0  0  0  0  0  0
    5.9519    3.3496    0.4147 H   0  0  0  0  0  0  0  0  0  0  0  0
    7.8377    1.8286   -0.0495 H   0  0  0  0  0  0  0  0  0  0  0  0
    7.4025   -0.5992   -0.4088 H   0  0  0  0  0  0  0  0  0  0  0  0
    6.7380   -2.3974   -1.4523 H   0  0  0  0  0  0  0  0  0  0  0  0
    5.6412   -3.6694   -0.9238 H   0  0  0  0  0  0  0  0  0  0  0  0
    6.7186   -2.8773    0.2862 H   0  0  0  0  0  0  0  0  0  0  0  0
   -5.0478    2.6260    0.3896 H   0  0  0  0  0  0  0  0  0  0  0  0
   -4.0576    3.4568   -1.7573 H   0  0  0  0  0  0  0  0  0  0  0  0
   -2.4608    3.6399   -0.8643 H   0  0  0  0  0  0  0  0  0  0  0  0
   -4.9555    5.3091   -0.7213 H   0  0  0  0  0  0  0  0  0  0  0  0
   -3.2825    5.8386   -0.5605 H   0  0  0  0  0  0  0  0  0  0  0  0
   -5.1870    4.8611    1.4766 H   0  0  0  0  0  0  0  0  0  0  0  0
   -3.5559    5.6888    1.7877 H   0  0  0  0  0  0  0  0  0  0  0  0
   -2.4192    3.6069    1.5398 H   0  0  0  0  0  0  0  0  0  0  0  0
   -3.9159    3.0960    2.4722 H   0  0  0  0  0  0  0  0  0  0  0  0
  1  2  1  0
  2  3  1  0
  3  4  2  0
  4  5  1  0
  5  6  2  0
  6  7  1  0
  7  8  2  0
  8  9  1  0
  9 10  1  0
  6 11  1  0
 11 12  2  0
 12 13  1  0
 13 14  2  0
 14 15  1  0
 15 16  1  0
 16 17  1  0
 17 18  1  0
 18 19  1  0
 19 20  1  0
 18 21  1  0
 21 22  2  0
 22 23  1  0
 23 24  2  0
 24 25  1  0
 25 26  2  0
 26 27  1  0
 27 28  1  0
 12 29  1  0
 29 30  1  0
 30 31  1  0
 31 32  1  0
 32 33  1  0
  8  3  1  0
 20 15  1  0
 26 21  1  0
 33 29  1  0
 14  5  1  0
  1 34  1  0
  1 35  1  0
  1 36  1  0
  4 37  1  0
  7 38  1  0
 10 39  1  0
 10 40  1  0
 10 41  1  0
 16 42  1  0
 16 43  1  0
 17 44  1  0
 17 45  1  0
 19 46  1  0
 19 47  1  0
 20 48  1  0
 20 49  1  0
 22 50  1  0
 23 51  1  0
 24 52  1  0
 25 53  1  0
 28 54  1  0
 28 55  1  0
 28 56  1  0
 29 57  1  0
 30 58  1  0
 30 59  1  0
 31 60  1  0
 31 61  1  0
 32 62  1  0
 32 63  1  0
 33 64  1  0
 33 65  1  0
M  END
>  <Ligand ID>  (1) 
LIG0004866

>  <Ligand>  (1) 
CHEMBL2431121

>  <SMILES>  (1) 
COc1cc2c(cc1OC)nc(nc2N1CCN(CC1)c1ccccc1OC)C1CCCC1

>  <CID>  (1) 
53245571.0

>  <ChEMBL ID>  (1) 
nan

>  <InChiKey>  (1) 
VEWIAFHMDFXVFL-UHFFFAOYSA-N

>  <InChi>  (1) 
InChI=1S/C26H32N4O3/c1-31-22-11-7-6-10-21(22)29-12-14-30(15-13-29)26-19-16-23(32-2)24(33-3)17-20(19)27-25(28-26)18-8-4-5-9-18/h6-7,10-11,16-18H,4-5,8-9,12-15H2,1-3H3

>  <IUPAC Name>  (1) 
2-cyclopentyl-6,7-dimethoxy-4-[4-(2-methoxyphenyl)piperazin-1-yl]quinazoline

$$$$
