
     RDKit          3D

 34 36  0  0  0  0  0  0  0  0999 V2000
    3.0017    2.4444   -0.9216 N   0  0  0  0  0  0  0  0  0  0  0  0
    2.1938    1.7707    0.0903 C   0  0  0  0  0  0  0  0  0  0  0  0
    1.4266    0.6294   -0.5344 C   0  0  1  0  0  0  0  0  0  0  0  0
    2.1957   -0.4524   -1.1798 C   0  0  0  0  0  0  0  0  0  0  0  0
    1.4303   -0.6841    0.1409 C   0  0  2  0  0  0  0  0  0  0  0  0
    0.3051   -1.6218    0.0103 C   0  0  0  0  0  0  0  0  0  0  0  0
    0.6331   -2.9662   -0.2023 C   0  0  0  0  0  0  0  0  0  0  0  0
   -0.3775   -3.9159   -0.3739 C   0  0  0  0  0  0  0  0  0  0  0  0
   -1.6937   -3.4966   -0.3285 C   0  0  0  0  0  0  0  0  0  0  0  0
   -2.0541   -2.1851   -0.1212 C   0  0  0  0  0  0  0  0  0  0  0  0
   -1.0234   -1.2616    0.0472 C   0  0  0  0  0  0  0  0  0  0  0  0
   -1.4334    0.1117    0.3061 C   0  0  0  0  0  0  0  0  0  0  0  0
   -0.9241    0.8476    1.3817 C   0  0  0  0  0  0  0  0  0  0  0  0
   -1.3423    2.1547    1.5924 C   0  0  0  0  0  0  0  0  0  0  0  0
   -2.2713    2.7084    0.7157 C   0  0  0  0  0  0  0  0  0  0  0  0
   -2.7877    1.9992   -0.3535 C   0  0  0  0  0  0  0  0  0  0  0  0
   -2.3634    0.7171   -0.5422 C   0  0  0  0  0  0  0  0  0  0  0  0
   -2.6929    3.9859    0.9052 F   0  0  0  0  0  0  0  0  0  0  0  0
    3.2200    3.4161   -0.5923 H   0  0  0  0  0  0  0  0  0  0  0  0
    3.8918    1.9103   -1.1284 H   0  0  0  0  0  0  0  0  0  0  0  0
    2.8843    1.3664    0.8622 H   0  0  0  0  0  0  0  0  0  0  0  0
    1.5480    2.5347    0.5295 H   0  0  0  0  0  0  0  0  0  0  0  0
    0.4807    0.9047   -1.0743 H   0  0  0  0  0  0  0  0  0  0  0  0
    1.8147   -0.9278   -2.0957 H   0  0  0  0  0  0  0  0  0  0  0  0
    3.2864   -0.3520   -1.1571 H   0  0  0  0  0  0  0  0  0  0  0  0
    2.1197   -0.9217    0.9679 H   0  0  0  0  0  0  0  0  0  0  0  0
    1.6839   -3.2863   -0.2361 H   0  0  0  0  0  0  0  0  0  0  0  0
   -0.1615   -4.9598   -0.5396 H   0  0  0  0  0  0  0  0  0  0  0  0
   -2.4655   -4.2594   -0.4662 H   0  0  0  0  0  0  0  0  0  0  0  0
   -3.0950   -1.8999   -0.0929 H   0  0  0  0  0  0  0  0  0  0  0  0
   -0.1939    0.3632    2.0426 H   0  0  0  0  0  0  0  0  0  0  0  0
   -0.9540    2.7216    2.4158 H   0  0  0  0  0  0  0  0  0  0  0  0
   -3.5071    2.4383   -1.0266 H   0  0  0  0  0  0  0  0  0  0  0  0
   -2.7748    0.1663   -1.3861 H   0  0  0  0  0  0  0  0  0  0  0  0
  1  2  1  0
  2  3  1  0
  3  4  1  0
  4  5  1  0
  5  6  1  0
  6  7  2  0
  7  8  1  0
  8  9  2  0
  9 10  1  0
 10 11  2  0
 11 12  1  0
 12 13  2  0
 13 14  1  0
 14 15  2  0
 15 16  1  0
 16 17  2  0
 15 18  1  0
  5  3  1  0
 11  6  1  0
 17 12  1  0
  1 19  1  0
  1 20  1  0
  2 21  1  0
  2 22  1  0
  3 23  1  6
  4 24  1  0
  4 25  1  0
  5 26  1  1
  7 27  1  0
  8 28  1  0
  9 29  1  0
 10 30  1  0
 13 31  1  0
 14 32  1  0
 16 33  1  0
 17 34  1  0
M  END
>  <Ligand ID>  (1) 
LIG0005678

>  <Ligand>  (1) 
CHEMBL474860

>  <SMILES>  (1) 
NC[C@H]1C[C@@H]1c1ccccc1c1ccc(cc1)F

>  <CID>  (1) 
44572252.0

>  <ChEMBL ID>  (1) 
nan

>  <InChiKey>  (1) 
JWVCXMLPFPAOMK-WBMJQRKESA-N

>  <InChi>  (1) 
InChI=1S/C16H16FN/c17-13-7-5-11(6-8-13)14-3-1-2-4-15(14)16-9-12(16)10-18/h1-8,12,16H,9-10,18H2/t12-,16+/m1/s1

>  <IUPAC Name>  (1) 
[(1S,2S)-2-[2-(4-fluorophenyl)phenyl]cyclopropyl]methanamine

$$$$
