
     RDKit          3D

181187  0  0  0  0  0  0  0  0999 V2000
  -12.6586   -4.1809    3.6837 C   0  0  0  0  0  0  0  0  0  0  0  0
  -11.2448   -4.0252    3.3433 N   0  0  0  0  0  0  0  0  0  0  0  0
  -10.9801   -3.8231    2.0774 C   0  0  0  0  0  0  0  0  0  0  0  0
   -9.6261   -3.6722    1.7421 N   0  0  0  0  0  0  0  0  0  0  0  0
   -8.6495   -2.9108    2.4536 C   0  0  0  0  0  0  0  0  0  0  0  0
   -8.9685   -1.4340    2.3029 C   0  0  0  0  0  0  0  0  0  0  0  0
   -9.0327   -1.0809    0.8528 C   0  0  0  0  0  0  0  0  0  0  0  0
   -9.2726    0.4042    0.7045 C   0  0  1  0  0  0  0  0  0  0  0  0
  -10.4699    0.9232    1.3388 C   0  0  0  0  0  0  0  0  0  0  0  0
  -10.3440    1.9893    2.0387 O   0  0  0  0  0  0  0  0  0  0  0  0
  -11.7787    0.3417    1.2502 N   0  0  0  0  0  0  0  0  0  0  0  0
  -12.8427    0.9923    1.9397 C   0  0  2  0  0  0  0  0  0  0  0  0
  -13.3111    0.1657    3.0896 C   0  0  0  0  0  0  0  0  0  0  0  0
  -12.7951   -0.9354    3.3457 O   0  0  0  0  0  0  0  0  0  0  0  0
  -14.3800    0.6328    3.9346 N   0  0  0  0  0  0  0  0  0  0  0  0
  -13.9663    1.3424    1.0151 C   0  0  0  0  0  0  0  0  0  0  0  0
  -13.4866    2.2444   -0.0457 C   0  0  0  0  0  0  0  0  0  0  0  0
  -13.5980    3.6264    0.0509 C   0  0  0  0  0  0  0  0  0  0  0  0
  -13.0332    4.2052   -1.0413 N   0  0  0  0  0  0  0  0  0  0  0  0
  -12.5514    3.2318   -1.8541 C   0  0  0  0  0  0  0  0  0  0  0  0
  -12.8402    2.0201   -1.2275 C   0  0  0  0  0  0  0  0  0  0  0  0
  -12.4782    0.8403   -1.8308 C   0  0  0  0  0  0  0  0  0  0  0  0
  -11.8210    0.8313   -3.0633 C   0  0  0  0  0  0  0  0  0  0  0  0
  -11.5347    2.0438   -3.6814 C   0  0  0  0  0  0  0  0  0  0  0  0
  -11.9008    3.2377   -3.0760 C   0  0  0  0  0  0  0  0  0  0  0  0
   -8.1245    1.1827    1.1235 N   0  0  0  0  0  0  0  0  0  0  0  0
   -7.0878    1.5263    0.1712 C   0  0  0  0  0  0  0  0  0  0  0  0
   -7.1962    1.1312   -1.0409 O   0  0  0  0  0  0  0  0  0  0  0  0
   -5.9067    2.3241    0.5782 C   0  0  1  0  0  0  0  0  0  0  0  0
   -4.9653    2.3753   -0.5244 N   0  0  0  0  0  0  0  0  0  0  0  0
   -3.7945    1.5558   -0.3844 C   0  0  0  0  0  0  0  0  0  0  0  0
   -3.6056    0.8152    0.6180 O   0  0  0  0  0  0  0  0  0  0  0  0
   -2.7682    1.5331   -1.3785 N   0  0  0  0  0  0  0  0  0  0  0  0
   -1.6881    0.6645   -1.1034 N   0  0  0  0  0  0  0  0  0  0  0  0
   -1.7446   -0.6219   -1.6796 C   0  0  0  0  0  0  0  0  0  0  0  0
   -2.7475   -0.8960   -2.4008 O   0  0  0  0  0  0  0  0  0  0  0  0
   -0.6811   -1.6409   -1.4673 C   0  0  1  0  0  0  0  0  0  0  0  0
    0.2953   -1.2119   -0.5045 N   0  0  0  0  0  0  0  0  0  0  0  0
    1.6119   -0.9139   -0.8559 C   0  0  0  0  0  0  0  0  0  0  0  0
    1.8998   -1.0106   -2.1021 O   0  0  0  0  0  0  0  0  0  0  0  0
    2.7312   -0.4910    0.0128 C   0  0  2  0  0  0  0  0  0  0  0  0
    2.2823    0.0121    1.3194 C   0  0  2  0  0  0  0  0  0  0  0  0
    3.4257    0.4388    2.0624 O   0  0  0  0  0  0  0  0  0  0  0  0
    1.7732   -1.2496    2.0982 C   0  0  0  0  0  0  0  0  0  0  0  0
    3.6019    0.4040   -0.7554 N   0  0  0  0  0  0  0  0  0  0  0  0
    4.9823    0.2363   -0.8666 C   0  0  0  0  0  0  0  0  0  0  0  0
    5.4774   -0.7693   -0.2390 O   0  0  0  0  0  0  0  0  0  0  0  0
    5.9266    1.0615   -1.6047 C   0  0  1  0  0  0  0  0  0  0  0  0
    7.3178    0.6162   -1.4439 N   0  0  0  0  0  0  0  0  0  0  0  0
    8.3735    1.4401   -1.9411 C   0  0  0  0  0  0  0  0  0  0  0  0
    8.2095    2.5234   -2.5190 O   0  0  0  0  0  0  0  0  0  0  0  0
    9.7907    0.9305   -1.7510 C   0  0  1  0  0  0  0  0  0  0  0  0
   10.7316    2.0641   -1.9567 C   0  0  0  0  0  0  0  0  0  0  0  0
   12.1554    1.6720   -1.8199 C   0  0  0  0  0  0  0  0  0  0  0  0
   13.0514    1.8881   -0.8071 C   0  0  0  0  0  0  0  0  0  0  0  0
   14.2175    1.3320   -1.1826 N   0  0  0  0  0  0  0  0  0  0  0  0
   14.1332    0.7619   -2.3843 C   0  0  0  0  0  0  0  0  0  0  0  0
   12.8224    0.9593   -2.8271 C   0  0  0  0  0  0  0  0  0  0  0  0
   12.4528    0.4651   -4.0551 C   0  0  0  0  0  0  0  0  0  0  0  0
   13.3140   -0.2237   -4.8889 C   0  0  0  0  0  0  0  0  0  0  0  0
   14.6000   -0.4140   -4.4501 C   0  0  0  0  0  0  0  0  0  0  0  0
   14.9943    0.0677   -3.2288 C   0  0  0  0  0  0  0  0  0  0  0  0
    9.9282    0.2590   -0.4959 N   0  0  0  0  0  0  0  0  0  0  0  0
    9.8369   -1.1114   -0.2186 C   0  0  0  0  0  0  0  0  0  0  0  0
    9.6001   -1.9820   -1.0759 O   0  0  0  0  0  0  0  0  0  0  0  0
   10.0349   -1.5470    1.2012 C   0  0  2  0  0  0  0  0  0  0  0  0
   10.4514   -0.4381    1.9977 N   0  0  0  0  0  0  0  0  0  0  0  0
    9.6782    0.2140    2.9944 C   0  0  0  0  0  0  0  0  0  0  0  0
    8.5025   -0.1229    3.2885 O   0  0  0  0  0  0  0  0  0  0  0  0
   10.2796    1.3564    3.7384 C   0  0  0  0  0  0  0  0  0  0  0  0
    9.9241    1.4561    5.1897 C   0  0  0  0  0  0  0  0  0  0  0  0
    9.4181    2.4946    4.1894 C   0  0  0  0  0  0  0  0  0  0  0  0
   10.9300   -2.7323    1.3206 C   0  0  0  0  0  0  0  0  0  0  0  0
   12.2859   -2.5143    0.7973 C   0  0  0  0  0  0  0  0  0  0  0  0
   12.6818   -2.8032   -0.4931 C   0  0  0  0  0  0  0  0  0  0  0  0
   13.9771   -2.5610   -0.8897 C   0  0  0  0  0  0  0  0  0  0  0  0
   14.8832   -2.0281   -0.0008 C   0  0  0  0  0  0  0  0  0  0  0  0
   14.5298   -1.7214    1.3062 C   0  0  0  0  0  0  0  0  0  0  0  0
   13.2266   -1.9783    1.6659 C   0  0  0  0  0  0  0  0  0  0  0  0
   16.1849   -1.7892   -0.4179 O   0  0  0  0  0  0  0  0  0  0  0  0
    5.7171    0.9746   -3.1335 C   0  0  0  0  0  0  0  0  0  0  0  0
    4.3905    1.4165   -3.5560 C   0  0  0  0  0  0  0  0  0  0  0  0
    3.5325    0.6393   -4.0272 O   0  0  0  0  0  0  0  0  0  0  0  0
    4.0299    2.7968   -3.4379 N   0  0  0  0  0  0  0  0  0  0  0  0
   -1.3956   -2.9124   -1.1662 C   0  0  0  0  0  0  0  0  0  0  0  0
   -0.5699   -4.0943   -0.9157 C   0  0  0  0  0  0  0  0  0  0  0  0
   -0.1380   -4.4791    0.3633 C   0  0  0  0  0  0  0  0  0  0  0  0
    0.6294   -5.6036    0.5034 C   0  0  0  0  0  0  0  0  0  0  0  0
    0.9792   -6.3574   -0.6022 C   0  0  0  0  0  0  0  0  0  0  0  0
    0.5669   -6.0053   -1.8898 C   0  0  0  0  0  0  0  0  0  0  0  0
   -0.2103   -4.8671   -2.0227 C   0  0  0  0  0  0  0  0  0  0  0  0
   -6.1898    3.6077    1.2297 C   0  0  0  0  0  0  0  0  0  0  0  0
   -6.9467    4.6548    0.5433 C   0  0  0  0  0  0  0  0  0  0  0  0
   -8.3400    4.3480    0.1076 C   0  0  0  0  0  0  0  0  0  0  0  0
   -6.1223    5.2831   -0.5602 C   0  0  0  0  0  0  0  0  0  0  0  0
  -12.0002   -3.7619    1.0887 N   0  0  0  0  0  0  0  0  0  0  0  0
  -12.8590   -4.0169    4.7579 H   0  0  0  0  0  0  0  0  0  0  0  0
  -12.9149   -5.2490    3.4157 H   0  0  0  0  0  0  0  0  0  0  0  0
  -13.2332   -3.5615    2.9926 H   0  0  0  0  0  0  0  0  0  0  0  0
   -9.2837   -4.1720    0.8635 H   0  0  0  0  0  0  0  0  0  0  0  0
   -8.7571   -3.1238    3.5465 H   0  0  0  0  0  0  0  0  0  0  0  0
   -7.6202   -3.0732    2.1091 H   0  0  0  0  0  0  0  0  0  0  0  0
   -9.9563   -1.2420    2.7659 H   0  0  0  0  0  0  0  0  0  0  0  0
   -8.1765   -0.8089    2.7746 H   0  0  0  0  0  0  0  0  0  0  0  0
   -8.0238   -1.2829    0.4087 H   0  0  0  0  0  0  0  0  0  0  0  0
   -9.8249   -1.6218    0.2994 H   0  0  0  0  0  0  0  0  0  0  0  0
   -9.2790    0.5455   -0.4406 H   0  0  0  0  0  0  0  0  0  0  0  0
  -11.8644   -0.5171    0.7035 H   0  0  0  0  0  0  0  0  0  0  0  0
  -12.4430    1.9344    2.4275 H   0  0  0  0  0  0  0  0  0  0  0  0
  -15.3008    0.1558    3.9987 H   0  0  0  0  0  0  0  0  0  0  0  0
  -14.1335    1.4982    4.4820 H   0  0  0  0  0  0  0  0  0  0  0  0
  -14.3754    0.3955    0.6035 H   0  0  0  0  0  0  0  0  0  0  0  0
  -14.7754    1.8342    1.6317 H   0  0  0  0  0  0  0  0  0  0  0  0
  -14.0527    4.1904    0.8530 H   0  0  0  0  0  0  0  0  0  0  0  0
  -12.9885    5.2205   -1.2065 H   0  0  0  0  0  0  0  0  0  0  0  0
  -12.6842   -0.1310   -1.4027 H   0  0  0  0  0  0  0  0  0  0  0  0
  -11.5566   -0.1151   -3.5023 H   0  0  0  0  0  0  0  0  0  0  0  0
  -11.0242    2.0601   -4.6314 H   0  0  0  0  0  0  0  0  0  0  0  0
  -11.6866    4.1765   -3.5447 H   0  0  0  0  0  0  0  0  0  0  0  0
   -7.9892    1.5347    2.1022 H   0  0  0  0  0  0  0  0  0  0  0  0
   -5.4503    1.6696    1.3948 H   0  0  0  0  0  0  0  0  0  0  0  0
   -5.0775    2.9482   -1.3792 H   0  0  0  0  0  0  0  0  0  0  0  0
   -2.8278    2.1211   -2.2390 H   0  0  0  0  0  0  0  0  0  0  0  0
   -0.8834    0.9426   -0.5072 H   0  0  0  0  0  0  0  0  0  0  0  0
   -0.1096   -1.8176   -2.4230 H   0  0  0  0  0  0  0  0  0  0  0  0
   -0.0197   -1.0971    0.4693 H   0  0  0  0  0  0  0  0  0  0  0  0
    3.3967   -1.3880    0.2102 H   0  0  0  0  0  0  0  0  0  0  0  0
    1.5211    0.7646    1.2605 H   0  0  0  0  0  0  0  0  0  0  0  0
    3.8963   -0.4310    2.2418 H   0  0  0  0  0  0  0  0  0  0  0  0
    2.5627   -1.5194    2.8806 H   0  0  0  0  0  0  0  0  0  0  0  0
    0.8668   -0.9738    2.6276 H   0  0  0  0  0  0  0  0  0  0  0  0
    1.6437   -2.1123    1.4576 H   0  0  0  0  0  0  0  0  0  0  0  0
    3.1586    1.2213   -1.2513 H   0  0  0  0  0  0  0  0  0  0  0  0
    5.7990    2.1381   -1.3850 H   0  0  0  0  0  0  0  0  0  0  0  0
    7.4466   -0.2949   -0.9692 H   0  0  0  0  0  0  0  0  0  0  0  0
    9.9594    0.1621   -2.5921 H   0  0  0  0  0  0  0  0  0  0  0  0
   10.5500    2.8708   -1.2182 H   0  0  0  0  0  0  0  0  0  0  0  0
   10.6332    2.4761   -2.9932 H   0  0  0  0  0  0  0  0  0  0  0  0
   12.8281    2.4126    0.1007 H   0  0  0  0  0  0  0  0  0  0  0  0
   15.0954    1.3403   -0.6131 H   0  0  0  0  0  0  0  0  0  0  0  0
   11.4379    0.5912   -4.4331 H   0  0  0  0  0  0  0  0  0  0  0  0
   13.0031   -0.6067   -5.8564 H   0  0  0  0  0  0  0  0  0  0  0  0
   15.2590   -0.9651   -5.1279 H   0  0  0  0  0  0  0  0  0  0  0  0
   15.9981   -0.1034   -2.9206 H   0  0  0  0  0  0  0  0  0  0  0  0
   10.1407    0.9075    0.3298 H   0  0  0  0  0  0  0  0  0  0  0  0
    9.0059   -1.8815    1.5361 H   0  0  0  0  0  0  0  0  0  0  0  0
   11.4268   -0.0708    1.8299 H   0  0  0  0  0  0  0  0  0  0  0  0
   11.3296    1.6010    3.4643 H   0  0  0  0  0  0  0  0  0  0  0  0
    9.1475    0.7722    5.6239 H   0  0  0  0  0  0  0  0  0  0  0  0
   10.6778    1.8057    5.9288 H   0  0  0  0  0  0  0  0  0  0  0  0
    9.9224    3.4852    4.2607 H   0  0  0  0  0  0  0  0  0  0  0  0
    8.3523    2.4341    3.9225 H   0  0  0  0  0  0  0  0  0  0  0  0
   10.4716   -3.6232    0.8027 H   0  0  0  0  0  0  0  0  0  0  0  0
   11.0139   -2.9930    2.4061 H   0  0  0  0  0  0  0  0  0  0  0  0
   11.9990   -3.2200   -1.1995 H   0  0  0  0  0  0  0  0  0  0  0  0
   14.3198   -2.7790   -1.8913 H   0  0  0  0  0  0  0  0  0  0  0  0
   15.2664   -1.2944    2.0034 H   0  0  0  0  0  0  0  0  0  0  0  0
   12.9249   -1.7473    2.6856 H   0  0  0  0  0  0  0  0  0  0  0  0
   16.8226   -2.5683   -0.5442 H   0  0  0  0  0  0  0  0  0  0  0  0
    6.4832    1.5428   -3.6801 H   0  0  0  0  0  0  0  0  0  0  0  0
    5.8738   -0.1135   -3.3675 H   0  0  0  0  0  0  0  0  0  0  0  0
    4.5825    3.5650   -3.9056 H   0  0  0  0  0  0  0  0  0  0  0  0
    3.1822    3.0253   -2.8563 H   0  0  0  0  0  0  0  0  0  0  0  0
   -2.1796   -2.7818   -0.3618 H   0  0  0  0  0  0  0  0  0  0  0  0
   -2.0284   -3.1332   -2.0713 H   0  0  0  0  0  0  0  0  0  0  0  0
   -0.4475   -3.8390    1.1873 H   0  0  0  0  0  0  0  0  0  0  0  0
    0.9556   -5.8880    1.5161 H   0  0  0  0  0  0  0  0  0  0  0  0
    1.5926   -7.2609   -0.5175 H   0  0  0  0  0  0  0  0  0  0  0  0
    0.8250   -6.5709   -2.7681 H   0  0  0  0  0  0  0  0  0  0  0  0
   -0.5371   -4.5982   -3.0313 H   0  0  0  0  0  0  0  0  0  0  0  0
   -6.6882    3.3439    2.2142 H   0  0  0  0  0  0  0  0  0  0  0  0
   -5.1971    4.0187    1.5929 H   0  0  0  0  0  0  0  0  0  0  0  0
   -7.0769    5.5121    1.2979 H   0  0  0  0  0  0  0  0  0  0  0  0
   -8.3691    3.5143   -0.5884 H   0  0  0  0  0  0  0  0  0  0  0  0
   -8.8878    5.2485   -0.2511 H   0  0  0  0  0  0  0  0  0  0  0  0
   -8.8950    4.0478    1.0266 H   0  0  0  0  0  0  0  0  0  0  0  0
   -6.3932    4.9085   -1.5689 H   0  0  0  0  0  0  0  0  0  0  0  0
   -6.2121    6.4114   -0.5585 H   0  0  0  0  0  0  0  0  0  0  0  0
   -5.0449    5.1092   -0.3914 H   0  0  0  0  0  0  0  0  0  0  0  0
  -12.6855   -4.5594    0.9457 H   0  0  0  0  0  0  0  0  0  0  0  0
  -12.1410   -2.9502    0.4505 H   0  0  0  0  0  0  0  0  0  0  0  0
  1  2  1  0
  2  3  2  3
  3  4  1  0
  4  5  1  0
  5  6  1  0
  6  7  1  0
  7  8  1  0
  8  9  1  0
  9 10  2  0
  9 11  1  0
 11 12  1  0
 12 13  1  0
 13 14  2  0
 13 15  1  0
 12 16  1  0
 16 17  1  0
 17 18  2  0
 18 19  1  0
 19 20  1  0
 20 21  2  0
 21 22  1  0
 22 23  2  0
 23 24  1  0
 24 25  2  0
  8 26  1  0
 26 27  1  0
 27 28  2  0
 27 29  1  0
 29 30  1  0
 30 31  1  0
 31 32  2  0
 31 33  1  0
 33 34  1  0
 34 35  1  0
 35 36  2  0
 35 37  1  0
 37 38  1  0
 38 39  1  0
 39 40  2  0
 39 41  1  0
 41 42  1  0
 42 43  1  0
 42 44  1  0
 41 45  1  0
 45 46  1  0
 46 47  2  0
 46 48  1  0
 48 49  1  0
 49 50  1  0
 50 51  2  0
 50 52  1  0
 52 53  1  0
 53 54  1  0
 54 55  2  0
 55 56  1  0
 56 57  1  0
 57 58  2  0
 58 59  1  0
 59 60  2  0
 60 61  1  0
 61 62  2  0
 52 63  1  0
 63 64  1  0
 64 65  2  0
 64 66  1  0
 66 67  1  0
 67 68  1  0
 68 69  2  0
 68 70  1  0
 70 71  1  0
 71 72  1  0
 66 73  1  0
 73 74  1  0
 74 75  2  0
 75 76  1  0
 76 77  2  0
 77 78  1  0
 78 79  2  0
 77 80  1  0
 48 81  1  0
 81 82  1  0
 82 83  2  0
 82 84  1  0
 37 85  1  0
 85 86  1  0
 86 87  2  0
 87 88  1  0
 88 89  2  0
 89 90  1  0
 90 91  2  0
 29 92  1  0
 92 93  1  0
 93 94  1  0
 93 95  1  0
  3 96  1  0
 21 17  1  0
 58 54  1  0
 72 70  1  0
 79 74  1  0
 91 86  1  0
 25 20  1  0
 62 57  1  0
  1 97  1  0
  1 98  1  0
  1 99  1  0
  4100  1  0
  5101  1  0
  5102  1  0
  6103  1  0
  6104  1  0
  7105  1  0
  7106  1  0
  8107  1  6
 11108  1  0
 12109  1  1
 15110  1  0
 15111  1  0
 16112  1  0
 16113  1  0
 18114  1  0
 19115  1  0
 22116  1  0
 23117  1  0
 24118  1  0
 25119  1  0
 26120  1  0
 29121  1  1
 30122  1  0
 33123  1  0
 34124  1  0
 37125  1  6
 38126  1  0
 41127  1  1
 42128  1  6
 43129  1  0
 44130  1  0
 44131  1  0
 44132  1  0
 45133  1  0
 48134  1  1
 49135  1  0
 52136  1  6
 53137  1  0
 53138  1  0
 55139  1  0
 56140  1  0
 59141  1  0
 60142  1  0
 61143  1  0
 62144  1  0
 63145  1  0
 66146  1  1
 67147  1  0
 70148  1  0
 71149  1  0
 71150  1  0
 72151  1  0
 72152  1  0
 73153  1  0
 73154  1  0
 75155  1  0
 76156  1  0
 78157  1  0
 79158  1  0
 80159  1  0
 81160  1  0
 81161  1  0
 84162  1  0
 84163  1  0
 85164  1  0
 85165  1  0
 87166  1  0
 88167  1  0
 89168  1  0
 90169  1  0
 91170  1  0
 92171  1  0
 92172  1  0
 93173  1  0
 94174  1  0
 94175  1  0
 94176  1  0
 95177  1  0
 95178  1  0
 95179  1  0
 96180  1  0
 96181  1  0
M  END
>  <Ligand ID>  (1) 
LIG0005343

>  <Ligand>  (1) 
CHEMBL3314226

>  <SMILES>  (1) 
CN=C(NCCC[C@@H](C(=O)N[C@H](C(=O)N)Cc1c[nH]c2c1cccc2)NC(=O)[C@@H](NC(=O)NNC(=O)[C@@H](NC(=O)[C@H]([C@H](O)C)NC(=O)[C@@H](NC(=O)[C@@H](Cc1c[nH]c2c1cccc2)NC(=O)[C@H](NC(=O)C1CC1)Cc1ccc(cc1)O)CC(=O)N)Cc1ccccc1)CC(C)C)N

>  <CID>  (1) 
118707494.0

>  <ChEMBL ID>  (1) 
nan

>  <InChiKey>  (1) 
ROUIGZVDXBTXSV-XKULFVCRSA-N

>  <InChi>  (1) 
InChI=1S/C66H85N17O13/c1-35(2)27-49(59(90)74-47(19-12-26-71-65(69)70-4)58(89)75-48(56(68)87)30-40-33-72-45-17-10-8-15-43(40)45)80-66(96)83-82-63(94)51(28-37-13-6-5-7-14-37)79-64(95)55(36(3)84)81-62(93)53(32-54(67)86)78-61(92)52(31-41-34-73-46-18-11-9-16-44(41)46)77-60(91)50(76-57(88)39-22-23-39)29-38-20-24-42(85)25-21-38/h5-11,13-18,20-21,24-25,33-36,39,47-53,55,72-73,84-85H,12,19,22-23,26-32H2,1-4H3,(H2,67,86)(H2,68,87)(H,74,90)(H,75,89)(H,76,88)(H,77,91)(H,78,92)(H,79,95)(H,81,93)(H,82,94)(H3,69,70,71)(H2,80,83,96)/t36-,47+,48+,49+,50-,51+,52-,53+,55+/m1/s1

>  <IUPAC Name>  (1) 
(2S)-N-[(2S,3R)-1-[[(2S)-1-[2-[[(2S)-1-[[(2S)-1-[[(2S)-1-amino-3-(1H-indol-3-yl)-1-oxopropan-2-yl]amino]-5-[(N'-methylcarbamimidoyl)amino]-1-oxopentan-2-yl]amino]-4-methyl-1-oxopentan-2-yl]carbamoyl]hydrazinyl]-1-oxo-3-phenylpropan-2-yl]amino]-3-hydroxy-1-oxobutan-2-yl]-2-[[(2R)-2-[[(2R)-2-(cyclopropanecarbonylamino)-3-(4-hydroxyphenyl)propanoyl]amino]-3-(1H-indol-3-yl)propanoyl]amino]butanediamide

$$$$
