
     RDKit          3D

 35 37  0  0  0  0  0  0  0  0999 V2000
   -0.3949   -1.5599   -2.2076 O   0  0  0  0  0  0  0  0  0  0  0  0
    0.1976   -0.9835   -1.2444 C   0  0  0  0  0  0  0  0  0  0  0  0
    1.6128   -1.2769   -1.0504 C   0  0  0  0  0  0  0  0  0  0  0  0
    2.3567   -2.0957   -1.7863 N   0  0  0  0  0  0  0  0  0  0  0  0
    3.5613   -2.1150   -1.3305 O   0  0  0  0  0  0  0  0  0  0  0  0
    3.6687   -1.3159   -0.2799 C   0  0  0  0  0  0  0  0  0  0  0  0
    2.4263   -0.7653   -0.0809 C   0  0  0  0  0  0  0  0  0  0  0  0
    4.9010   -1.0924    0.4931 C   0  0  0  0  0  0  0  0  0  0  0  0
    5.1288    0.3952    0.8195 C   0  0  0  0  0  0  0  0  0  0  0  0
    4.8861   -0.6202    1.8844 C   0  0  0  0  0  0  0  0  0  0  0  0
   -0.4663   -0.0797   -0.3692 N   0  0  0  0  0  0  0  0  0  0  0  0
   -1.8728    0.2116   -0.5625 C   0  0  0  0  0  0  0  0  0  0  0  0
   -2.1119    1.6888   -0.7914 C   0  0  0  0  0  0  0  0  0  0  0  0
   -3.5896    1.9011   -0.9983 C   0  0  0  0  0  0  0  0  0  0  0  0
   -4.3739    0.6241   -1.0214 C   0  0  0  0  0  0  0  0  0  0  0  0
   -4.1365   -0.1356    0.2575 C   0  0  0  0  0  0  0  0  0  0  0  0
   -2.6913   -0.1683    0.6542 C   0  0  0  0  0  0  0  0  0  0  0  0
    2.1847   -0.0634    0.7080 H   0  0  0  0  0  0  0  0  0  0  0  0
    5.7654   -1.6723    0.1068 H   0  0  0  0  0  0  0  0  0  0  0  0
    4.2994    1.0988    0.6826 H   0  0  0  0  0  0  0  0  0  0  0  0
    6.1281    0.7483    0.5463 H   0  0  0  0  0  0  0  0  0  0  0  0
    5.7927   -0.8544    2.4987 H   0  0  0  0  0  0  0  0  0  0  0  0
    3.9830   -0.5752    2.4966 H   0  0  0  0  0  0  0  0  0  0  0  0
    0.0032    0.4038    0.4277 H   0  0  0  0  0  0  0  0  0  0  0  0
   -2.2994   -0.3375   -1.4253 H   0  0  0  0  0  0  0  0  0  0  0  0
   -1.7358    2.3012    0.0514 H   0  0  0  0  0  0  0  0  0  0  0  0
   -1.5346    2.0260   -1.6894 H   0  0  0  0  0  0  0  0  0  0  0  0
   -3.7600    2.4068   -1.9803 H   0  0  0  0  0  0  0  0  0  0  0  0
   -3.9756    2.5021   -0.1508 H   0  0  0  0  0  0  0  0  0  0  0  0
   -4.2417    0.0154   -1.9377 H   0  0  0  0  0  0  0  0  0  0  0  0
   -5.4575    0.9038   -1.0019 H   0  0  0  0  0  0  0  0  0  0  0  0
   -4.5849   -1.1663    0.1922 H   0  0  0  0  0  0  0  0  0  0  0  0
   -4.7111    0.3798    1.0664 H   0  0  0  0  0  0  0  0  0  0  0  0
   -2.4577   -1.2223    0.9475 H   0  0  0  0  0  0  0  0  0  0  0  0
   -2.4999    0.4931    1.5109 H   0  0  0  0  0  0  0  0  0  0  0  0
  1  2  2  0
  2  3  1  0
  3  4  2  0
  4  5  1  0
  5  6  1  0
  6  7  2  0
  6  8  1  0
  8  9  1  0
  9 10  1  0
  2 11  1  0
 11 12  1  0
 12 13  1  0
 13 14  1  0
 14 15  1  0
 15 16  1  0
 16 17  1  0
  7  3  1  0
 10  8  1  0
 17 12  1  0
  7 18  1  0
  8 19  1  0
  9 20  1  0
  9 21  1  0
 10 22  1  0
 10 23  1  0
 11 24  1  0
 12 25  1  0
 13 26  1  0
 13 27  1  0
 14 28  1  0
 14 29  1  0
 15 30  1  0
 15 31  1  0
 16 32  1  0
 16 33  1  0
 17 34  1  0
 17 35  1  0
M  END
>  <Ligand ID>  (1) 
LIG0001367

>  <Ligand>  (1) 
N-cyclohexyl-5-cyclopropylisoxazole-3-carboxamide

>  <SMILES>  (1) 
O=C(c1noc(c1)C1CC1)NC1CCCCC1

>  <CID>  (1) 
16188020.0

>  <ChEMBL ID>  (1) 
nan

>  <InChiKey>  (1) 
FRCIYEULNJCLEJ-UHFFFAOYSA-N

>  <InChi>  (1) 
InChI=1S/C13H18N2O2/c16-13(14-10-4-2-1-3-5-10)11-8-12(17-15-11)9-6-7-9/h8-10H,1-7H2,(H,14,16)

>  <IUPAC Name>  (1) 
N-cyclohexyl-5-cyclopropyl-1,2-oxazole-3-carboxamide

$$$$
