
     RDKit          3D

 54 56  0  0  0  0  0  0  0  0999 V2000
    1.7600    0.1197   -1.6739 C   0  0  0  0  0  0  0  0  0  0  0  0
    1.0478    0.5287   -0.4108 C   0  0  2  0  0  0  0  0  0  0  0  0
    0.3025    1.8045   -0.7161 C   0  0  0  0  0  0  0  0  0  0  0  0
   -0.6490    1.5838   -1.7694 N   0  0  0  0  0  0  0  0  0  0  0  0
   -1.8635    0.8717   -1.6580 C   0  0  0  0  0  0  0  0  0  0  0  0
   -2.6501    0.6802   -2.8002 C   0  0  0  0  0  0  0  0  0  0  0  0
   -3.8524    0.0162   -2.7668 C   0  0  0  0  0  0  0  0  0  0  0  0
   -4.2976   -0.4767   -1.5695 C   0  0  0  0  0  0  0  0  0  0  0  0
   -3.5743   -0.3223   -0.4081 C   0  0  0  0  0  0  0  0  0  0  0  0
   -2.3695    0.3530   -0.4903 C   0  0  0  0  0  0  0  0  0  0  0  0
   -4.0150   -0.8018    0.8928 C   0  0  0  0  0  0  0  0  0  0  0  0
   -3.1344   -1.6219    1.5400 N   0  0  0  0  0  0  0  0  0  0  0  0
   -3.4151   -2.1266    2.7372 C   0  0  0  0  0  0  0  0  0  0  0  0
   -4.5950   -1.8303    3.3400 C   0  0  0  0  0  0  0  0  0  0  0  0
   -5.4889   -1.0068    2.7023 C   0  0  0  0  0  0  0  0  0  0  0  0
   -5.2113   -0.4631    1.4394 C   0  0  0  0  0  0  0  0  0  0  0  0
   -6.1705    0.4527    0.8547 C   0  0  0  0  0  0  0  0  0  0  0  0
   -6.0312    1.0882   -0.2052 O   0  0  0  0  0  0  0  0  0  0  0  0
   -7.3766    0.6546    1.5332 O   0  0  0  0  0  0  0  0  0  0  0  0
    1.8298    0.5070    0.7108 N   0  0  0  0  0  0  0  0  0  0  0  0
    2.7847    1.3749    1.1608 C   0  0  0  0  0  0  0  0  0  0  0  0
    4.0608    1.4572    0.3954 C   0  0  1  0  0  0  0  0  0  0  0  0
    4.7804    0.1566    0.3930 C   0  0  0  0  0  0  0  0  0  0  0  0
    4.4028   -0.9376    1.1295 C   0  0  0  0  0  0  0  0  0  0  0  0
    5.1039   -2.1434    1.0988 C   0  0  0  0  0  0  0  0  0  0  0  0
    6.2248   -2.2767    0.3088 C   0  0  0  0  0  0  0  0  0  0  0  0
    6.6181   -1.1892   -0.4366 C   0  0  0  0  0  0  0  0  0  0  0  0
    5.9091    0.0149   -0.3993 C   0  0  0  0  0  0  0  0  0  0  0  0
    8.0483   -1.3777   -1.4365 Cl  0  0  0  0  0  0  0  0  0  0  0  0
    3.9753    1.8701   -0.9093 O   0  0  0  0  0  0  0  0  0  0  0  0
    1.9716    0.9749   -2.3554 H   0  0  0  0  0  0  0  0  0  0  0  0
    1.0821   -0.5422   -2.2989 H   0  0  0  0  0  0  0  0  0  0  0  0
    2.7064   -0.4052   -1.4849 H   0  0  0  0  0  0  0  0  0  0  0  0
    0.2334   -0.2601   -0.2944 H   0  0  0  0  0  0  0  0  0  0  0  0
   -0.2987    2.0793    0.2008 H   0  0  0  0  0  0  0  0  0  0  0  0
    0.9092    2.6664   -0.9605 H   0  0  0  0  0  0  0  0  0  0  0  0
   -0.4144    1.9958   -2.7222 H   0  0  0  0  0  0  0  0  0  0  0  0
   -2.3199    1.0610   -3.7615 H   0  0  0  0  0  0  0  0  0  0  0  0
   -4.4201   -0.1067   -3.6652 H   0  0  0  0  0  0  0  0  0  0  0  0
   -5.2387   -1.0149   -1.5808 H   0  0  0  0  0  0  0  0  0  0  0  0
   -1.8269    0.4773    0.4250 H   0  0  0  0  0  0  0  0  0  0  0  0
   -2.7107   -2.7745    3.2407 H   0  0  0  0  0  0  0  0  0  0  0  0
   -4.8255   -2.2413    4.3147 H   0  0  0  0  0  0  0  0  0  0  0  0
   -6.4233   -0.7842    3.2003 H   0  0  0  0  0  0  0  0  0  0  0  0
   -8.0222    1.4009    1.2379 H   0  0  0  0  0  0  0  0  0  0  0  0
    1.3604   -0.0463    1.5093 H   0  0  0  0  0  0  0  0  0  0  0  0
    3.1139    1.0169    2.2030 H   0  0  0  0  0  0  0  0  0  0  0  0
    2.4089    2.4120    1.4336 H   0  0  0  0  0  0  0  0  0  0  0  0
    4.7763    2.1583    0.9351 H   0  0  0  0  0  0  0  0  0  0  0  0
    3.5479   -0.9083    1.7654 H   0  0  0  0  0  0  0  0  0  0  0  0
    4.7718   -2.9839    1.6959 H   0  0  0  0  0  0  0  0  0  0  0  0
    6.7518   -3.2199    0.3008 H   0  0  0  0  0  0  0  0  0  0  0  0
    6.3058    0.7991   -1.0207 H   0  0  0  0  0  0  0  0  0  0  0  0
    4.4075    1.2857   -1.5551 H   0  0  0  0  0  0  0  0  0  0  0  0
  1  2  1  0
  2  3  1  0
  3  4  1  0
  4  5  1  0
  5  6  2  0
  6  7  1  0
  7  8  2  0
  8  9  1  0
  9 10  2  0
  9 11  1  0
 11 12  2  0
 12 13  1  0
 13 14  2  0
 14 15  1  0
 15 16  2  0
 16 17  1  0
 17 18  2  0
 17 19  1  0
  2 20  1  0
 20 21  1  0
 21 22  1  0
 22 23  1  0
 23 24  2  0
 24 25  1  0
 25 26  2  0
 26 27  1  0
 27 28  2  0
 27 29  1  0
 22 30  1  0
 10  5  1  0
 16 11  1  0
 28 23  1  0
  1 31  1  0
  1 32  1  0
  1 33  1  0
  2 34  1  1
  3 35  1  0
  3 36  1  0
  4 37  1  0
  6 38  1  0
  7 39  1  0
  8 40  1  0
 10 41  1  0
 13 42  1  0
 14 43  1  0
 15 44  1  0
 19 45  1  0
 20 46  1  0
 21 47  1  0
 21 48  1  0
 22 49  1  1
 24 50  1  0
 25 51  1  0
 26 52  1  0
 28 53  1  0
 30 54  1  0
M  END
>  <Ligand ID>  (1) 
LIG0002251

>  <Ligand>  (1) 
CHEMBL208328

>  <SMILES>  (1) 
C[C@H](CNc1cccc(c1)c1ncccc1C(=O)O)NC[C@@H](c1cccc(c1)Cl)O

>  <CID>  (1) 
11495581.0

>  <ChEMBL ID>  (1) 
nan

>  <InChiKey>  (1) 
DKQAXJMPOURSQQ-VFNWGFHPSA-N

>  <InChi>  (1) 
InChI=1S/C23H24ClN3O3/c1-15(26-14-21(28)16-5-2-7-18(24)11-16)13-27-19-8-3-6-17(12-19)22-20(23(29)30)9-4-10-25-22/h2-12,15,21,26-28H,13-14H2,1H3,(H,29,30)/t15-,21+/m1/s1

>  <IUPAC Name>  (1) 
2-[3-[[(2R)-2-[[(2R)-2-(3-chlorophenyl)-2-hydroxyethyl]amino]propyl]amino]phenyl]pyridine-3-carboxylic acid

$$$$
