
     RDKit          3D

 61 63  0  0  0  0  0  0  0  0999 V2000
    0.6665    0.2674   -3.8879 O   0  0  0  0  0  0  0  0  0  0  0  0
   -0.1588    0.8863   -2.9485 C   0  0  2  0  0  0  0  0  0  0  0  0
    0.7653    1.6984   -2.0268 C   0  0  2  0  0  0  0  0  0  0  0  0
    1.7117    2.3934   -2.7212 O   0  0  0  0  0  0  0  0  0  0  0  0
    1.3231    0.4911   -1.2558 C   0  0  2  0  0  0  0  0  0  0  0  0
    0.1135   -0.0216   -0.8000 O   0  0  0  0  0  0  0  0  0  0  0  0
   -0.6809   -0.1432   -1.9360 C   0  0  1  0  0  0  0  0  0  0  0  0
   -2.0687    0.2473   -1.6844 N   0  0  0  0  0  0  0  0  0  0  0  0
   -2.8661    0.4464   -2.7578 C   0  0  0  0  0  0  0  0  0  0  0  0
   -4.1806    0.8226   -2.5585 C   0  0  0  0  0  0  0  0  0  0  0  0
   -4.6415    0.9834   -1.2706 C   0  0  0  0  0  0  0  0  0  0  0  0
   -5.8356    1.3247   -1.1144 O   0  0  0  0  0  0  0  0  0  0  0  0
   -3.8480    0.7842   -0.2141 N   0  0  0  0  0  0  0  0  0  0  0  0
   -2.5611    0.4153   -0.4482 C   0  0  0  0  0  0  0  0  0  0  0  0
   -1.7775    0.2164    0.5182 O   0  0  0  0  0  0  0  0  0  0  0  0
   -4.2433    0.9327    1.1624 C   0  0  0  0  0  0  0  0  0  0  0  0
   -4.7958   -0.3361    1.7201 C   0  0  0  0  0  0  0  0  0  0  0  0
   -3.9380   -1.2267    1.9990 O   0  0  0  0  0  0  0  0  0  0  0  0
   -6.2103   -0.5634    1.9384 C   0  0  0  0  0  0  0  0  0  0  0  0
   -7.1944    0.3593    1.7119 C   0  0  0  0  0  0  0  0  0  0  0  0
   -8.5449    0.1136    1.9134 C   0  0  0  0  0  0  0  0  0  0  0  0
   -8.9353   -1.1362    2.3710 C   0  0  0  0  0  0  0  0  0  0  0  0
   -7.9683   -2.0819    2.6069 C   0  0  0  0  0  0  0  0  0  0  0  0
   -6.6176   -1.8124    2.3977 C   0  0  0  0  0  0  0  0  0  0  0  0
    2.2964    0.8801   -0.2214 C   0  0  0  0  0  0  0  0  0  0  0  0
    2.6219   -0.2259    0.5570 O   0  0  0  0  0  0  0  0  0  0  0  0
    3.9472    0.0740    1.5565 P   0  0  0  0  0  0  0  0  0  0  0  0
    4.7281    1.2872    1.0976 O   0  0  0  0  0  0  0  0  0  0  0  0
    4.9947   -1.2477    1.4125 O   0  0  0  0  0  0  0  0  0  0  0  0
    6.1955   -1.0287    0.2729 P   0  0  0  0  0  0  0  0  0  0  0  0
    6.4860    0.4677    0.1317 O   0  0  0  0  0  0  0  0  0  0  0  0
    7.6941   -1.8693    0.8502 C   0  0  0  0  0  0  0  0  0  0  0  0
    9.1004   -0.7359    0.7165 P   0  0  0  0  0  0  0  0  0  0  0  0
   10.3121   -1.5908    0.3656 O   0  0  0  0  0  0  0  0  0  0  0  0
    9.3774    0.0126    2.2146 O   0  0  0  0  0  0  0  0  0  0  0  0
    8.8622    0.3916   -0.5062 O   0  0  0  0  0  0  0  0  0  0  0  0
    7.8842   -3.0002    0.0771 F   0  0  0  0  0  0  0  0  0  0  0  0
    7.5270   -2.2935    2.1462 F   0  0  0  0  0  0  0  0  0  0  0  0
    5.7309   -1.6729   -1.2434 O   0  0  0  0  0  0  0  0  0  0  0  0
    3.5441    0.3059    3.1636 O   0  0  0  0  0  0  0  0  0  0  0  0
    0.6756   -0.7358   -3.7918 H   0  0  0  0  0  0  0  0  0  0  0  0
   -0.9441    1.5105   -3.3716 H   0  0  0  0  0  0  0  0  0  0  0  0
    0.1887    2.3284   -1.3503 H   0  0  0  0  0  0  0  0  0  0  0  0
    2.2181    1.8671   -3.3601 H   0  0  0  0  0  0  0  0  0  0  0  0
    1.7090   -0.2525   -1.9852 H   0  0  0  0  0  0  0  0  0  0  0  0
   -0.6169   -1.1663   -2.3170 H   0  0  0  0  0  0  0  0  0  0  0  0
   -2.5364    0.3259   -3.7777 H   0  0  0  0  0  0  0  0  0  0  0  0
   -4.8287    0.9846   -3.4120 H   0  0  0  0  0  0  0  0  0  0  0  0
   -3.3397    1.1673    1.7994 H   0  0  0  0  0  0  0  0  0  0  0  0
   -4.9394    1.7844    1.3057 H   0  0  0  0  0  0  0  0  0  0  0  0
   -6.9319    1.3395    1.3631 H   0  0  0  0  0  0  0  0  0  0  0  0
   -9.3090    0.8719    1.7240 H   0  0  0  0  0  0  0  0  0  0  0  0
  -10.0044   -1.3186    2.5271 H   0  0  0  0  0  0  0  0  0  0  0  0
   -8.3083   -3.0587    2.9678 H   0  0  0  0  0  0  0  0  0  0  0  0
   -5.9327   -2.6075    2.6091 H   0  0  0  0  0  0  0  0  0  0  0  0
    1.8052    1.6003    0.4731 H   0  0  0  0  0  0  0  0  0  0  0  0
    3.1881    1.4075   -0.5977 H   0  0  0  0  0  0  0  0  0  0  0  0
    9.0320    0.9207    2.1973 H   0  0  0  0  0  0  0  0  0  0  0  0
    9.1629    1.3007   -0.2238 H   0  0  0  0  0  0  0  0  0  0  0  0
    6.5580   -1.7434   -1.7947 H   0  0  0  0  0  0  0  0  0  0  0  0
    4.3383    0.4584    3.7099 H   0  0  0  0  0  0  0  0  0  0  0  0
  1  2  1  0
  2  3  1  0
  3  4  1  0
  3  5  1  0
  5  6  1  0
  6  7  1  0
  7  8  1  0
  8  9  1  0
  9 10  2  0
 10 11  1  0
 11 12  2  0
 11 13  1  0
 13 14  1  0
 14 15  2  0
 13 16  1  0
 16 17  1  0
 17 18  2  0
 17 19  1  0
 19 20  2  0
 20 21  1  0
 21 22  2  0
 22 23  1  0
 23 24  2  0
  5 25  1  0
 25 26  1  0
 26 27  1  0
 27 28  2  0
 27 29  1  0
 29 30  1  0
 30 31  2  0
 30 32  1  0
 32 33  1  0
 33 34  2  0
 33 35  1  0
 33 36  1  0
 32 37  1  0
 32 38  1  0
 30 39  1  0
 27 40  1  0
  7  2  1  0
 14  8  1  0
 24 19  1  0
  1 41  1  0
  2 42  1  6
  3 43  1  1
  4 44  1  0
  5 45  1  6
  7 46  1  6
  9 47  1  0
 10 48  1  0
 16 49  1  0
 16 50  1  0
 20 51  1  0
 21 52  1  0
 22 53  1  0
 23 54  1  0
 24 55  1  0
 25 56  1  0
 25 57  1  0
 35 58  1  0
 36 59  1  0
 39 60  1  0
 40 61  1  0
M  END
>  <Ligand ID>  (1) 
LIG0002598

>  <Ligand>  (1) 
CHEMBL1765118

>  <SMILES>  (1) 
O[C@@H]1[C@H](O)[C@H](O[C@H]1n1ccc(=O)n(c1=O)CC(=O)c1ccccc1)COP(=O)(OP(=O)(C(P(=O)(O)O)(F)F)O)O

>  <CID>  (1) 
52952604.0

>  <ChEMBL ID>  (1) 
nan

>  <InChiKey>  (1) 
CSVGAEIOFXFKIT-DTZQCDIJSA-N

>  <InChi>  (1) 
InChI=1S/C18H21F2N2O15P3/c19-18(20,38(28,29)30)39(31,32)37-40(33,34)35-9-12-14(25)15(26)16(36-12)21-7-6-13(24)22(17(21)27)8-11(23)10-4-2-1-3-5-10/h1-7,12,14-16,25-26H,8-9H2,(H,31,32)(H,33,34)(H2,28,29,30)/t12-,14-,15-,16-/m1/s1

>  <IUPAC Name>  (1) 
[[[[(2R,3S,4R,5R)-5-(2,4-dioxo-3-phenacylpyrimidin-1-yl)-3,4-dihydroxyoxolan-2-yl]methoxy-hydroxyphosphoryl]oxy-hydroxyphosphoryl]-difluoromethyl]phosphonic acid

$$$$
