
     RDKit          3D

 51 53  0  0  0  0  0  0  0  0999 V2000
   -1.3116   -1.5181    1.6176 C   0  0  0  0  0  0  0  0  0  0  0  0
   -1.3010   -1.7929    0.1342 C   0  0  2  0  0  0  0  0  0  0  0  0
    0.1703   -2.1680   -0.1890 C   0  0  0  0  0  0  0  0  0  0  0  0
    0.9506   -1.0154    0.1912 N   0  0  0  0  0  0  0  0  0  0  0  0
    2.3800   -1.0648    0.0447 C   0  0  0  0  0  0  0  0  0  0  0  0
    2.9234   -2.2231   -0.4585 C   0  0  0  0  0  0  0  0  0  0  0  0
    4.2977   -2.2557   -0.5859 C   0  0  0  0  0  0  0  0  0  0  0  0
    5.0775   -1.1503   -0.2138 C   0  0  0  0  0  0  0  0  0  0  0  0
    4.5574    0.0030    0.2826 C   0  0  0  0  0  0  0  0  0  0  0  0
    3.1476    0.0078    0.4031 C   0  0  0  0  0  0  0  0  0  0  0  0
    5.2296    1.2191    0.6167 C   0  0  0  0  0  0  0  0  0  0  0  0
    4.6941    2.1022    1.4779 O   0  0  0  0  0  0  0  0  0  0  0  0
    5.4331    3.1283    1.6568 C   0  0  0  0  0  0  0  0  0  0  0  0
    6.5214    2.9745    0.9038 N   0  0  0  0  0  0  0  0  0  0  0  0
    6.4089    1.7875    0.2451 C   0  0  0  0  0  0  0  0  0  0  0  0
    7.3708    1.3681   -0.7351 C   0  0  0  0  0  0  0  0  0  0  0  0
    7.3017    0.4098   -1.5283 O   0  0  0  0  0  0  0  0  0  0  0  0
    8.5752    2.1096   -0.8530 O   0  0  0  0  0  0  0  0  0  0  0  0
   -1.6119   -0.7113   -0.7040 N   0  0  0  0  0  0  0  0  0  0  0  0
   -2.9101   -0.2878   -1.0006 C   0  0  0  0  0  0  0  0  0  0  0  0
   -3.6662    0.3114    0.1118 C   0  0  1  0  0  0  0  0  0  0  0  0
   -5.0327    0.8079   -0.2628 C   0  0  0  0  0  0  0  0  0  0  0  0
   -5.8641    1.1575    0.7965 C   0  0  0  0  0  0  0  0  0  0  0  0
   -7.1479    1.6229    0.5356 C   0  0  0  0  0  0  0  0  0  0  0  0
   -7.5553    1.7231   -0.7689 C   0  0  0  0  0  0  0  0  0  0  0  0
   -6.7354    1.3779   -1.8257 C   0  0  0  0  0  0  0  0  0  0  0  0
   -5.4544    0.9133   -1.5671 C   0  0  0  0  0  0  0  0  0  0  0  0
   -7.3652    1.5487   -3.4405 Cl  0  0  0  0  0  0  0  0  0  0  0  0
   -3.8760   -0.6079    1.1242 O   0  0  0  0  0  0  0  0  0  0  0  0
   -0.3058   -1.8444    2.0731 H   0  0  0  0  0  0  0  0  0  0  0  0
   -2.0299   -2.1442    2.1911 H   0  0  0  0  0  0  0  0  0  0  0  0
   -1.3584   -0.4559    1.8913 H   0  0  0  0  0  0  0  0  0  0  0  0
   -1.9362   -2.7035   -0.0906 H   0  0  0  0  0  0  0  0  0  0  0  0
    0.4042   -3.0800    0.3557 H   0  0  0  0  0  0  0  0  0  0  0  0
    0.3013   -2.2984   -1.2886 H   0  0  0  0  0  0  0  0  0  0  0  0
    0.5173   -0.1238    0.5784 H   0  0  0  0  0  0  0  0  0  0  0  0
    2.3625   -3.0749   -0.7482 H   0  0  0  0  0  0  0  0  0  0  0  0
    4.7521   -3.1345   -0.9728 H   0  0  0  0  0  0  0  0  0  0  0  0
    6.1253   -1.2923   -0.3022 H   0  0  0  0  0  0  0  0  0  0  0  0
    2.6268    0.8775    0.7881 H   0  0  0  0  0  0  0  0  0  0  0  0
    5.1843    3.9664    2.3186 H   0  0  0  0  0  0  0  0  0  0  0  0
    9.3996    1.6559   -1.2512 H   0  0  0  0  0  0  0  0  0  0  0  0
   -1.0202   -0.6971   -1.5834 H   0  0  0  0  0  0  0  0  0  0  0  0
   -2.8710    0.3825   -1.9110 H   0  0  0  0  0  0  0  0  0  0  0  0
   -3.4570   -1.2181   -1.4007 H   0  0  0  0  0  0  0  0  0  0  0  0
   -3.1529    1.2220    0.5153 H   0  0  0  0  0  0  0  0  0  0  0  0
   -5.4978    1.0625    1.8306 H   0  0  0  0  0  0  0  0  0  0  0  0
   -7.7739    1.8867    1.3904 H   0  0  0  0  0  0  0  0  0  0  0  0
   -8.5766    2.0955   -0.9315 H   0  0  0  0  0  0  0  0  0  0  0  0
   -4.8223    0.6459   -2.3741 H   0  0  0  0  0  0  0  0  0  0  0  0
   -4.0791   -1.5051    0.7659 H   0  0  0  0  0  0  0  0  0  0  0  0
  1  2  1  0
  2  3  1  0
  3  4  1  0
  4  5  1  0
  5  6  2  0
  6  7  1  0
  7  8  2  0
  8  9  1  0
  9 10  2  0
  9 11  1  0
 11 12  1  0
 12 13  1  0
 13 14  2  0
 14 15  1  0
 15 16  1  0
 16 17  2  0
 16 18  1  0
  2 19  1  0
 19 20  1  0
 20 21  1  0
 21 22  1  0
 22 23  2  0
 23 24  1  0
 24 25  2  0
 25 26  1  0
 26 27  2  0
 26 28  1  0
 21 29  1  0
 10  5  1  0
 15 11  2  0
 27 22  1  0
  1 30  1  0
  1 31  1  0
  1 32  1  0
  2 33  1  1
  3 34  1  0
  3 35  1  0
  4 36  1  0
  6 37  1  0
  7 38  1  0
  8 39  1  0
 10 40  1  0
 13 41  1  0
 18 42  1  0
 19 43  1  0
 20 44  1  0
 20 45  1  0
 21 46  1  1
 23 47  1  0
 24 48  1  0
 25 49  1  0
 27 50  1  0
 29 51  1  0
M  END
>  <Ligand ID>  (1) 
LIG0002254

>  <Ligand>  (1) 
CHEMBL393471

>  <SMILES>  (1) 
C[C@H](CNc1cccc(c1)c1ocnc1C(=O)O)NC[C@@H](c1cccc(c1)Cl)O

>  <CID>  (1) 
44441233.0

>  <ChEMBL ID>  (1) 
nan

>  <InChiKey>  (1) 
HJVSSDRCWQFUQC-ACJLOTCBSA-N

>  <InChi>  (1) 
InChI=1S/C21H22ClN3O4/c1-13(23-11-18(26)14-4-2-6-16(22)8-14)10-24-17-7-3-5-15(9-17)20-19(21(27)28)25-12-29-20/h2-9,12-13,18,23-24,26H,10-11H2,1H3,(H,27,28)/t13-,18+/m1/s1

>  <IUPAC Name>  (1) 
5-[3-[[(2R)-2-[[(2R)-2-(3-chlorophenyl)-2-hydroxyethyl]amino]propyl]amino]phenyl]-1,3-oxazole-4-carboxylic acid

$$$$
