
     RDKit          3D

 24 23  0  0  0  0  0  0  0  0999 V2000
   -2.6596    1.2584   -0.6754 C   0  0  0  0  0  0  0  0  0  0  0  0
   -2.5038    0.4157    0.5684 C   0  0  0  0  0  0  0  0  0  0  0  0
   -1.5625   -0.7602    0.3040 C   0  0  0  0  0  0  0  0  0  0  0  0
   -0.2198   -0.2034   -0.1039 C   0  0  0  0  0  0  0  0  0  0  0  0
    0.7846   -1.2777   -0.3886 C   0  0  0  0  0  0  0  0  0  0  0  0
    2.1035   -0.6591   -0.7902 C   0  0  0  0  0  0  0  0  0  0  0  0
    2.6892    0.2200    0.2534 C   0  0  0  0  0  0  0  0  0  0  0  0
    3.9099    0.7362   -0.2324 O   0  0  0  0  0  0  0  0  0  0  0  0
   -1.7531    1.8657   -0.7885 H   0  0  0  0  0  0  0  0  0  0  0  0
   -3.5531    1.9032   -0.5316 H   0  0  0  0  0  0  0  0  0  0  0  0
   -2.8276    0.5370   -1.5257 H   0  0  0  0  0  0  0  0  0  0  0  0
   -2.0779    1.0820    1.3624 H   0  0  0  0  0  0  0  0  0  0  0  0
   -3.4742    0.0308    0.9285 H   0  0  0  0  0  0  0  0  0  0  0  0
   -2.0383   -1.3454   -0.5173 H   0  0  0  0  0  0  0  0  0  0  0  0
   -1.5075   -1.4019    1.1872 H   0  0  0  0  0  0  0  0  0  0  0  0
   -0.3815    0.3745   -1.0374 H   0  0  0  0  0  0  0  0  0  0  0  0
    0.1573    0.3999    0.7428 H   0  0  0  0  0  0  0  0  0  0  0  0
    0.9285   -1.8641    0.5598 H   0  0  0  0  0  0  0  0  0  0  0  0
    0.4374   -2.0223   -1.1320 H   0  0  0  0  0  0  0  0  0  0  0  0
    2.7980   -1.5166   -0.9336 H   0  0  0  0  0  0  0  0  0  0  0  0
    1.9885   -0.1511   -1.7646 H   0  0  0  0  0  0  0  0  0  0  0  0
    2.9061   -0.3752    1.1593 H   0  0  0  0  0  0  0  0  0  0  0  0
    2.0727    1.0912    0.5246 H   0  0  0  0  0  0  0  0  0  0  0  0
    3.7830    1.6623   -0.5604 H   0  0  0  0  0  0  0  0  0  0  0  0
  1  2  1  0
  2  3  1  0
  3  4  1  0
  4  5  1  0
  5  6  1  0
  6  7  1  0
  7  8  1  0
  1  9  1  0
  1 10  1  0
  1 11  1  0
  2 12  1  0
  2 13  1  0
  3 14  1  0
  3 15  1  0
  4 16  1  0
  4 17  1  0
  5 18  1  0
  5 19  1  0
  6 20  1  0
  6 21  1  0
  7 22  1  0
  7 23  1  0
  8 24  1  0
M  END
>  <Ligand ID>  (1) 
LIG0000087

>  <Ligand>  (1) 
Heptanol

>  <SMILES>  (1) 
CCCCCCCO

>  <CID>  (1) 
8129.0

>  <ChEMBL ID>  (1) 
nan

>  <InChiKey>  (1) 
BBMCTIGTTCKYKF-UHFFFAOYSA-N

>  <InChi>  (1) 
InChI=1S/C7H16O/c1-2-3-4-5-6-7-8/h8H,2-7H2,1H3

>  <IUPAC Name>  (1) 
heptan-1-ol

$$$$
