
     RDKit          3D

 44 44  0  0  0  0  0  0  0  0999 V2000
   -6.3740   -1.7702    1.1001 O   0  0  0  0  0  0  0  0  0  0  0  0
   -5.7795   -1.2915   -0.0598 C   0  0  0  0  0  0  0  0  0  0  0  0
   -5.3297   -2.1169   -0.8983 O   0  0  0  0  0  0  0  0  0  0  0  0
   -5.6447    0.1570   -0.3670 C   0  0  2  0  0  0  0  0  0  0  0  0
   -4.1558    0.4738   -0.5001 C   0  0  0  0  0  0  0  0  0  0  0  0
   -3.5140    0.1291    0.8189 C   0  0  0  0  0  0  0  0  0  0  0  0
   -1.7307    0.4508    0.8243 P   0  0  0  0  0  0  0  0  0  0  0  0
   -1.2147    0.0170    2.1700 O   0  0  0  0  0  0  0  0  0  0  0  0
   -0.9136   -0.5315   -0.4475 C   0  0  0  0  0  0  0  0  0  0  0  0
    0.5310   -0.2991   -0.4545 C   0  0  0  0  0  0  0  0  0  0  0  0
    1.4132   -1.1749    0.1392 C   0  0  0  0  0  0  0  0  0  0  0  0
    2.7811   -0.9318    0.1190 C   0  0  0  0  0  0  0  0  0  0  0  0
    3.3098    0.1842   -0.4895 C   0  0  0  0  0  0  0  0  0  0  0  0
    2.4134    1.0593   -1.0841 C   0  0  0  0  0  0  0  0  0  0  0  0
    1.0523    0.8352   -1.0743 C   0  0  0  0  0  0  0  0  0  0  0  0
    4.6396    0.4973   -0.5544 O   0  0  0  0  0  0  0  0  0  0  0  0
    5.7292   -0.1928   -0.0511 C   0  0  0  0  0  0  0  0  0  0  0  0
    6.5577   -0.6449   -1.2228 C   0  0  0  0  0  0  0  0  0  0  0  0
    7.6222   -1.3047   -1.0396 O   0  0  0  0  0  0  0  0  0  0  0  0
    6.1962   -0.3625   -2.5305 O   0  0  0  0  0  0  0  0  0  0  0  0
    6.5799    0.6235    0.8946 C   0  0  0  0  0  0  0  0  0  0  0  0
   -1.4320   -0.2873   -1.7157 O   0  0  0  0  0  0  0  0  0  0  0  0
   -1.4532    2.0735    0.4983 O   0  0  0  0  0  0  0  0  0  0  0  0
   -6.2283    0.8831    0.7315 N   0  0  0  0  0  0  0  0  0  0  0  0
   -6.5043   -2.7566    1.2874 H   0  0  0  0  0  0  0  0  0  0  0  0
   -6.2076    0.4370   -1.2784 H   0  0  0  0  0  0  0  0  0  0  0  0
   -4.0808    1.5722   -0.6570 H   0  0  0  0  0  0  0  0  0  0  0  0
   -3.7628   -0.0885   -1.3487 H   0  0  0  0  0  0  0  0  0  0  0  0
   -3.9508    0.7980    1.5879 H   0  0  0  0  0  0  0  0  0  0  0  0
   -3.6573   -0.9400    1.0608 H   0  0  0  0  0  0  0  0  0  0  0  0
   -1.1311   -1.6006   -0.2220 H   0  0  0  0  0  0  0  0  0  0  0  0
    1.0643   -2.0882    0.6447 H   0  0  0  0  0  0  0  0  0  0  0  0
    3.4434   -1.6390    0.5939 H   0  0  0  0  0  0  0  0  0  0  0  0
    2.7734    1.9642   -1.5837 H   0  0  0  0  0  0  0  0  0  0  0  0
    0.4031    1.5607   -1.5589 H   0  0  0  0  0  0  0  0  0  0  0  0
    5.3925   -1.1122    0.4596 H   0  0  0  0  0  0  0  0  0  0  0  0
    6.8362   -0.3153   -3.3007 H   0  0  0  0  0  0  0  0  0  0  0  0
    7.3987   -0.0635    1.2397 H   0  0  0  0  0  0  0  0  0  0  0  0
    5.9769    0.8467    1.7939 H   0  0  0  0  0  0  0  0  0  0  0  0
    6.9947    1.5196    0.4352 H   0  0  0  0  0  0  0  0  0  0  0  0
   -1.5391    0.7037   -1.7893 H   0  0  0  0  0  0  0  0  0  0  0  0
   -2.2618    2.4492    0.0678 H   0  0  0  0  0  0  0  0  0  0  0  0
   -6.2107    0.3836    1.6307 H   0  0  0  0  0  0  0  0  0  0  0  0
   -6.0324    1.8930    0.7519 H   0  0  0  0  0  0  0  0  0  0  0  0
  1  2  1  0
  2  3  2  0
  2  4  1  0
  4  5  1  0
  5  6  1  0
  6  7  1  0
  7  8  2  0
  7  9  1  0
  9 10  1  0
 10 11  2  0
 11 12  1  0
 12 13  2  0
 13 14  1  0
 14 15  2  0
 13 16  1  0
 16 17  1  0
 17 18  1  0
 18 19  2  0
 18 20  1  0
 17 21  1  0
  9 22  1  0
  7 23  1  0
  4 24  1  0
 15 10  1  0
  1 25  1  0
  4 26  1  6
  5 27  1  0
  5 28  1  0
  6 29  1  0
  6 30  1  0
  9 31  1  0
 11 32  1  0
 12 33  1  0
 14 34  1  0
 15 35  1  0
 17 36  1  0
 20 37  1  0
 21 38  1  0
 21 39  1  0
 21 40  1  0
 22 41  1  0
 23 42  1  0
 24 43  1  0
 24 44  1  0
M  END
>  <Ligand ID>  (1) 
LIG0003372

>  <Ligand>  (1) 
CHEMBL3967637

>  <SMILES>  (1) 
OC(=O)[C@H](CCP(=O)(C(c1ccc(cc1)OC(C(=O)O)C)O)O)N

>  <CID>  (1) 
71042037.0

>  <ChEMBL ID>  (1) 
nan

>  <InChiKey>  (1) 
APKUZALKBDSBHZ-PGMTZQPISA-N

>  <InChi>  (1) 
InChI=1S/C14H20NO8P/c1-8(12(16)17)23-10-4-2-9(3-5-10)14(20)24(21,22)7-6-11(15)13(18)19/h2-5,8,11,14,20H,6-7,15H2,1H3,(H,16,17)(H,18,19)(H,21,22)/t8?,11-,14?/m0/s1

>  <IUPAC Name>  (1) 
(2S)-2-amino-4-[[[4-(1-carboxyethoxy)phenyl]-hydroxymethyl]-hydroxyphosphoryl]butanoic acid

$$$$
