
     RDKit          3D

 18 19  0  0  0  0  0  0  0  0999 V2000
   -2.5570    0.8130    1.1612 N   0  0  0  0  0  0  0  0  0  0  0  0
   -1.3830    0.0703    0.7847 C   0  0  1  0  0  0  0  0  0  0  0  0
   -1.4552   -0.4894   -0.6265 C   0  0  0  0  0  0  0  0  0  0  0  0
   -0.4852    0.6509   -0.2131 C   0  0  2  0  0  0  0  0  0  0  0  0
    0.9360    0.2737   -0.3563 C   0  0  0  0  0  0  0  0  0  0  0  0
    1.9154    1.0500   -0.9421 C   0  0  0  0  0  0  0  0  0  0  0  0
    3.0832    0.3480   -0.8756 N   0  0  0  0  0  0  0  0  0  0  0  0
    2.8009   -0.8236   -0.2613 C   0  0  0  0  0  0  0  0  0  0  0  0
    1.4964   -0.8834    0.0611 N   0  0  0  0  0  0  0  0  0  0  0  0
   -2.3074    1.6765    1.6834 H   0  0  0  0  0  0  0  0  0  0  0  0
   -3.3101    0.2663    1.5964 H   0  0  0  0  0  0  0  0  0  0  0  0
   -1.0203   -0.6270    1.5647 H   0  0  0  0  0  0  0  0  0  0  0  0
   -2.2655   -0.1825   -1.2955 H   0  0  0  0  0  0  0  0  0  0  0  0
   -1.0239   -1.4959   -0.7728 H   0  0  0  0  0  0  0  0  0  0  0  0
   -0.7371    1.6636   -0.6322 H   0  0  0  0  0  0  0  0  0  0  0  0
    1.8600    2.0246   -1.3877 H   0  0  0  0  0  0  0  0  0  0  0  0
    3.4871   -1.6444   -0.0303 H   0  0  0  0  0  0  0  0  0  0  0  0
    0.9657   -1.6517    0.5419 H   0  0  0  0  0  0  0  0  0  0  0  0
  1  2  1  0
  2  3  1  0
  3  4  1  0
  4  5  1  0
  5  6  2  0
  6  7  1  0
  7  8  2  0
  8  9  1  0
  4  2  1  0
  9  5  1  0
  1 10  1  0
  1 11  1  0
  2 12  1  1
  3 13  1  0
  3 14  1  0
  4 15  1  6
  6 16  1  0
  8 17  1  0
  9 18  1  0
M  END
>  <Ligand ID>  (1) 
LIG0002396

>  <Ligand>  (1) 
VUF-5297

>  <SMILES>  (1) 
N[C@H]1C[C@@H]1c1cnc[nH]1

>  <CID>  (1) 
10374457.0

>  <ChEMBL ID>  (1) 
nan

>  <InChiKey>  (1) 
OWWNABDDYQLERE-WHFBIAKZSA-N

>  <InChi>  (1) 
InChI=1S/C6H9N3/c7-5-1-4(5)6-2-8-3-9-6/h2-5H,1,7H2,(H,8,9)/t4-,5-/m0/s1

>  <IUPAC Name>  (1) 
(1S,2S)-2-(1H-imidazol-5-yl)cyclopropan-1-amine

$$$$
