
     RDKit          3D

 24 23  0  0  0  0  0  0  0  0999 V2000
   -2.6897    0.8054    0.9666 C   0  0  0  0  0  0  0  0  0  0  0  0
   -2.7997   -0.3024   -0.0319 C   0  0  0  0  0  0  0  0  0  0  0  0
   -1.7146   -0.1361   -1.0916 C   0  0  0  0  0  0  0  0  0  0  0  0
   -0.3603   -0.1901   -0.3729 C   0  0  0  0  0  0  0  0  0  0  0  0
    0.7815   -0.0321   -1.3537 C   0  0  0  0  0  0  0  0  0  0  0  0
    2.1068   -0.0817   -0.6764 C   0  0  0  0  0  0  0  0  0  0  0  0
    2.2718   -0.2433    0.6192 C   0  0  0  0  0  0  0  0  0  0  0  0
    3.6548   -0.2802    1.2100 C   0  0  0  0  0  0  0  0  0  0  0  0
   -2.3749    1.7457    0.4685 H   0  0  0  0  0  0  0  0  0  0  0  0
   -3.7183    0.9628    1.3914 H   0  0  0  0  0  0  0  0  0  0  0  0
   -2.0256    0.5123    1.8033 H   0  0  0  0  0  0  0  0  0  0  0  0
   -3.7724   -0.2288   -0.5502 H   0  0  0  0  0  0  0  0  0  0  0  0
   -2.6486   -1.3132    0.4155 H   0  0  0  0  0  0  0  0  0  0  0  0
   -1.8331    0.7740   -1.6813 H   0  0  0  0  0  0  0  0  0  0  0  0
   -1.8303   -1.0090   -1.7643 H   0  0  0  0  0  0  0  0  0  0  0  0
   -0.3090    0.6296    0.3718 H   0  0  0  0  0  0  0  0  0  0  0  0
   -0.3340   -1.1354    0.1675 H   0  0  0  0  0  0  0  0  0  0  0  0
    0.7114   -0.7943   -2.1556 H   0  0  0  0  0  0  0  0  0  0  0  0
    0.6758    0.9493   -1.8599 H   0  0  0  0  0  0  0  0  0  0  0  0
    2.9777    0.0218   -1.2913 H   0  0  0  0  0  0  0  0  0  0  0  0
    1.4068   -0.3490    1.2526 H   0  0  0  0  0  0  0  0  0  0  0  0
    3.5815    0.3362    2.1541 H   0  0  0  0  0  0  0  0  0  0  0  0
    3.8457   -1.3393    1.4741 H   0  0  0  0  0  0  0  0  0  0  0  0
    4.3967    0.1538    0.5343 H   0  0  0  0  0  0  0  0  0  0  0  0
  1  2  1  0
  2  3  1  0
  3  4  1  0
  4  5  1  0
  5  6  1  0
  6  7  2  0
  7  8  1  0
  1  9  1  0
  1 10  1  0
  1 11  1  0
  2 12  1  0
  2 13  1  0
  3 14  1  0
  3 15  1  0
  4 16  1  0
  4 17  1  0
  5 18  1  0
  5 19  1  0
  6 20  1  0
  7 21  1  0
  8 22  1  0
  8 23  1  0
  8 24  1  0
M  END
>  <Ligand ID>  (1) 
LIG0000403

>  <Ligand>  (1) 
2-Octene

>  <SMILES>  (1) 
CCCCC/C=C/C

>  <CID>  (1) 
5364448.0

>  <ChEMBL ID>  (1) 
nan

>  <InChiKey>  (1) 
ILPBINAXDRFYPL-HWKANZROSA-N

>  <InChi>  (1) 
InChI=1S/C8H16/c1-3-5-7-8-6-4-2/h3,5H,4,6-8H2,1-2H3/b5-3+

>  <IUPAC Name>  (1) 
(E)-oct-2-ene

$$$$
