
     RDKit          3D

192199  0  0  0  0  0  0  0  0999 V2000
   -8.6221    4.1202   -4.4468 N   0  0  0  0  0  0  0  0  0  0  0  0
   -8.9033    5.1551   -3.5013 C   0  0  0  0  0  0  0  0  0  0  0  0
   -8.2170    5.1374   -2.3962 N   0  0  0  0  0  0  0  0  0  0  0  0
   -7.2321    4.0486   -2.2619 C   0  0  0  0  0  0  0  0  0  0  0  0
   -7.9238    2.9124   -1.6129 C   0  0  0  0  0  0  0  0  0  0  0  0
   -7.0949    1.6798   -1.4511 C   0  0  0  0  0  0  0  0  0  0  0  0
   -5.8791    1.7949   -0.6664 C   0  0  2  0  0  0  0  0  0  0  0  0
   -4.8853    2.7187   -1.1978 N   0  0  0  0  0  0  0  0  0  0  0  0
   -3.8675    3.1229   -0.2654 C   0  0  0  0  0  0  0  0  0  0  0  0
   -3.9681    2.5830    0.8572 O   0  0  0  0  0  0  0  0  0  0  0  0
   -2.7773    4.0508   -0.4986 C   0  0  1  0  0  0  0  0  0  0  0  0
   -3.3762    5.4501   -0.5687 C   0  0  0  0  0  0  0  0  0  0  0  0
   -2.3714    6.4996   -0.7944 C   0  0  0  0  0  0  0  0  0  0  0  0
   -1.9695    6.9617   -2.0277 C   0  0  0  0  0  0  0  0  0  0  0  0
   -1.0196    7.9386   -2.2076 C   0  0  0  0  0  0  0  0  0  0  0  0
   -0.3988    8.5271   -1.1204 C   0  0  0  0  0  0  0  0  0  0  0  0
   -0.7926    8.0701    0.1443 C   0  0  0  0  0  0  0  0  0  0  0  0
   -1.7448    7.0917    0.3057 C   0  0  0  0  0  0  0  0  0  0  0  0
   -1.7592    3.9845    0.5559 N   0  0  0  0  0  0  0  0  0  0  0  0
   -0.3456    4.0825    0.2343 C   0  0  0  0  0  0  0  0  0  0  0  0
   -0.1884    4.3075   -0.9981 O   0  0  0  0  0  0  0  0  0  0  0  0
    0.6478    3.9334    1.2493 C   0  0  2  0  0  0  0  0  0  0  0  0
    0.9511    5.2398    1.9883 C   0  0  0  0  0  0  0  0  0  0  0  0
    1.8496    4.6403    3.0840 C   0  0  0  0  0  0  0  0  0  0  0  0
    2.6467    3.5801    2.3077 C   0  0  0  0  0  0  0  0  0  0  0  0
    1.9674    3.4507    1.0285 N   0  0  0  0  0  0  0  0  0  0  0  0
    2.5576    2.9466   -0.1566 C   0  0  0  0  0  0  0  0  0  0  0  0
    1.7515    2.9304   -1.1332 O   0  0  0  0  0  0  0  0  0  0  0  0
    3.8934    2.4717   -0.4092 C   0  0  1  0  0  0  0  0  0  0  0  0
    4.7879    2.3150    0.6932 N   0  0  0  0  0  0  0  0  0  0  0  0
    6.1686    2.6282    0.4433 C   0  0  0  0  0  0  0  0  0  0  0  0
    6.5336    3.0155   -0.7243 O   0  0  0  0  0  0  0  0  0  0  0  0
    7.2471    2.5329    1.4451 C   0  0  2  0  0  0  0  0  0  0  0  0
    7.6882    3.8911    1.8514 C   0  0  0  0  0  0  0  0  0  0  0  0
    6.7545    4.8157    2.4418 C   0  0  0  0  0  0  0  0  0  0  0  0
    6.0154    5.6451    1.5837 C   0  0  0  0  0  0  0  0  0  0  0  0
    5.1543    6.5669    2.1346 C   0  0  0  0  0  0  0  0  0  0  0  0
    5.0260    6.6671    3.5000 C   0  0  0  0  0  0  0  0  0  0  0  0
    5.7454    5.8584    4.3792 C   0  0  0  0  0  0  0  0  0  0  0  0
    6.6062    4.9364    3.8040 C   0  0  0  0  0  0  0  0  0  0  0  0
    4.1468    7.6121    4.0314 O   0  0  0  0  0  0  0  0  0  0  0  0
    8.4236    2.0621    0.6142 N   0  0  0  0  0  0  0  0  0  0  0  0
    4.0285    1.2406   -1.2982 C   0  0  0  0  0  0  0  0  0  0  0  0
    3.3140    0.0614   -0.9079 C   0  0  0  0  0  0  0  0  0  0  0  0
    2.3883    0.1040   -0.1083 O   0  0  0  0  0  0  0  0  0  0  0  0
    3.5414   -1.3095   -1.3446 N   0  0  0  0  0  0  0  0  0  0  0  0
    4.6927   -1.4803   -2.1499 C   0  0  2  0  0  0  0  0  0  0  0  0
    5.9622   -1.2955   -1.4233 C   0  0  0  0  0  0  0  0  0  0  0  0
    7.1096   -1.3935   -1.9065 O   0  0  0  0  0  0  0  0  0  0  0  0
    5.9080   -0.9765   -0.0206 N   0  0  0  0  0  0  0  0  0  0  0  0
    4.7209   -0.8876   -3.4944 C   0  0  0  0  0  0  0  0  0  0  0  0
    6.0127   -1.1699   -4.1696 C   0  0  0  0  0  0  0  0  0  0  0  0
    6.1462   -2.4053   -4.7895 C   0  0  0  0  0  0  0  0  0  0  0  0
    7.3082   -2.7157   -5.4586 C   0  0  0  0  0  0  0  0  0  0  0  0
    8.2950   -1.7593   -5.4745 C   0  0  0  0  0  0  0  0  0  0  0  0
    8.1912   -0.5301   -4.8703 C   0  0  0  0  0  0  0  0  0  0  0  0
    7.0459   -0.2203   -4.2111 C   0  0  0  0  0  0  0  0  0  0  0  0
    9.4792   -2.0558   -6.1463 O   0  0  0  0  0  0  0  0  0  0  0  0
    2.6092   -2.3654   -0.9628 C   0  0  2  0  0  0  0  0  0  0  0  0
    1.1901   -2.0469   -1.3812 C   0  0  0  0  0  0  0  0  0  0  0  0
    2.5841   -2.6547    0.4600 N   0  0  0  0  0  0  0  0  0  0  0  0
    1.7759   -3.7525    0.8470 C   0  0  0  0  0  0  0  0  0  0  0  0
    1.1977   -4.3496   -0.0722 O   0  0  0  0  0  0  0  0  0  0  0  0
    1.5506   -4.2522    2.2358 C   0  0  1  0  0  0  0  0  0  0  0  0
    0.7030   -5.4407    1.9898 N   0  0  0  0  0  0  0  0  0  0  0  0
   -0.6653   -5.2470    1.6780 C   0  0  0  0  0  0  0  0  0  0  0  0
   -1.0500   -4.0625    1.6910 O   0  0  0  0  0  0  0  0  0  0  0  0
   -1.6446   -6.2959    1.3347 C   0  0  1  0  0  0  0  0  0  0  0  0
   -2.8330   -5.7010    0.7455 N   0  0  0  0  0  0  0  0  0  0  0  0
   -4.0414   -6.3679    0.4284 C   0  0  0  0  0  0  0  0  0  0  0  0
   -4.1099   -7.5520    0.7500 O   0  0  0  0  0  0  0  0  0  0  0  0
   -5.1871   -5.6328   -0.2789 C   0  0  1  0  0  0  0  0  0  0  0  0
   -4.7462   -4.2719   -0.3509 N   0  0  0  0  0  0  0  0  0  0  0  0
   -5.5266   -3.1266    0.0984 C   0  0  0  0  0  0  0  0  0  0  0  0
   -6.6834   -3.3658    0.3936 O   0  0  0  0  0  0  0  0  0  0  0  0
   -4.8097   -1.8507    0.1130 C   0  0  1  0  0  0  0  0  0  0  0  0
   -5.6678   -0.6637    0.1048 N   0  0  0  0  0  0  0  0  0  0  0  0
   -5.1343    0.4606   -0.5666 C   0  0  0  0  0  0  0  0  0  0  0  0
   -4.0244    0.3451   -1.0796 O   0  0  0  0  0  0  0  0  0  0  0  0
   -4.0815   -1.6656    1.4813 C   0  0  0  0  0  0  0  0  0  0  0  0
   -5.0663   -1.6582    2.5522 C   0  0  0  0  0  0  0  0  0  0  0  0
   -5.6260   -0.4684    3.0502 C   0  0  0  0  0  0  0  0  0  0  0  0
   -6.5381   -0.7492    3.9932 N   0  0  0  0  0  0  0  0  0  0  0  0
   -6.6155   -2.0738    4.1509 C   0  0  0  0  0  0  0  0  0  0  0  0
   -5.7053   -2.6460    3.2609 C   0  0  0  0  0  0  0  0  0  0  0  0
   -5.6053   -4.0086    3.2570 C   0  0  0  0  0  0  0  0  0  0  0  0
   -6.3852   -4.7465    4.1035 C   0  0  0  0  0  0  0  0  0  0  0  0
   -7.2973   -4.1859    4.9915 C   0  0  0  0  0  0  0  0  0  0  0  0
   -7.3989   -2.8210    4.9997 C   0  0  0  0  0  0  0  0  0  0  0  0
   -5.3134   -6.2603   -1.6613 C   0  0  0  0  0  0  0  0  0  0  0  0
   -6.3620   -5.6793   -2.4890 C   0  0  0  0  0  0  0  0  0  0  0  0
   -7.1483   -4.7551   -2.1880 O   0  0  0  0  0  0  0  0  0  0  0  0
   -6.5228   -6.2243   -3.8152 N   0  0  0  0  0  0  0  0  0  0  0  0
   -0.9770   -6.9626    0.0596 C   0  0  0  0  0  0  0  0  0  0  0  0
    2.7444   -4.6238    2.9962 C   0  0  0  0  0  0  0  0  0  0  0  0
    3.5985   -5.6790    2.4514 C   0  0  0  0  0  0  0  0  0  0  0  0
    4.6122   -5.3132    1.5828 C   0  0  0  0  0  0  0  0  0  0  0  0
    5.4786   -6.2037    1.0110 C   0  0  0  0  0  0  0  0  0  0  0  0
    5.3615   -7.5509    1.2965 C   0  0  0  0  0  0  0  0  0  0  0  0
    4.3573   -7.9218    2.1569 C   0  0  0  0  0  0  0  0  0  0  0  0
    3.4797   -7.0130    2.7340 C   0  0  0  0  0  0  0  0  0  0  0  0
    2.9872   -3.5556   -1.7840 C   0  0  0  0  0  0  0  0  0  0  0  0
    3.4577   -4.6104   -1.2871 O   0  0  0  0  0  0  0  0  0  0  0  0
    2.8362   -3.5770   -3.1776 O   0  0  0  0  0  0  0  0  0  0  0  0
   -9.8770    6.1059   -3.8255 N   0  0  0  0  0  0  0  0  0  0  0  0
   -9.0982    3.1986   -4.4536 H   0  0  0  0  0  0  0  0  0  0  0  0
   -7.8977    4.2569   -5.1985 H   0  0  0  0  0  0  0  0  0  0  0  0
   -6.7834    3.7820   -3.2114 H   0  0  0  0  0  0  0  0  0  0  0  0
   -6.5064    4.4800   -1.5105 H   0  0  0  0  0  0  0  0  0  0  0  0
   -8.9207    2.6862   -2.0830 H   0  0  0  0  0  0  0  0  0  0  0  0
   -8.2101    3.2579   -0.5653 H   0  0  0  0  0  0  0  0  0  0  0  0
   -7.7428    0.8846   -0.9643 H   0  0  0  0  0  0  0  0  0  0  0  0
   -6.8492    1.2908   -2.5005 H   0  0  0  0  0  0  0  0  0  0  0  0
   -6.1080    2.0351    0.4129 H   0  0  0  0  0  0  0  0  0  0  0  0
   -4.8015    3.0915   -2.1234 H   0  0  0  0  0  0  0  0  0  0  0  0
   -2.2938    3.8948   -1.4603 H   0  0  0  0  0  0  0  0  0  0  0  0
   -3.9839    5.6396    0.3527 H   0  0  0  0  0  0  0  0  0  0  0  0
   -4.0885    5.4527   -1.4099 H   0  0  0  0  0  0  0  0  0  0  0  0
   -2.4357    6.5277   -2.8990 H   0  0  0  0  0  0  0  0  0  0  0  0
   -0.7119    8.2968   -3.1944 H   0  0  0  0  0  0  0  0  0  0  0  0
    0.3461    9.2917   -1.2498 H   0  0  0  0  0  0  0  0  0  0  0  0
   -0.3384    8.5038    1.0359 H   0  0  0  0  0  0  0  0  0  0  0  0
   -2.0059    6.7791    1.3107 H   0  0  0  0  0  0  0  0  0  0  0  0
   -1.9645    3.8754    1.5446 H   0  0  0  0  0  0  0  0  0  0  0  0
    0.2069    3.2650    2.0477 H   0  0  0  0  0  0  0  0  0  0  0  0
    1.5650    5.9088    1.3849 H   0  0  0  0  0  0  0  0  0  0  0  0
    0.0434    5.6671    2.4132 H   0  0  0  0  0  0  0  0  0  0  0  0
    1.1938    4.0683    3.7672 H   0  0  0  0  0  0  0  0  0  0  0  0
    2.4832    5.3873    3.5336 H   0  0  0  0  0  0  0  0  0  0  0  0
    2.6653    2.6329    2.8590 H   0  0  0  0  0  0  0  0  0  0  0  0
    3.6530    4.0659    2.1678 H   0  0  0  0  0  0  0  0  0  0  0  0
    4.4111    3.2804   -1.1125 H   0  0  0  0  0  0  0  0  0  0  0  0
    4.5657    1.9941    1.6490 H   0  0  0  0  0  0  0  0  0  0  0  0
    7.1400    1.7744    2.2084 H   0  0  0  0  0  0  0  0  0  0  0  0
    8.5483    3.7860    2.5941 H   0  0  0  0  0  0  0  0  0  0  0  0
    8.2093    4.3803    0.9763 H   0  0  0  0  0  0  0  0  0  0  0  0
    6.1533    5.5250    0.5064 H   0  0  0  0  0  0  0  0  0  0  0  0
    4.5881    7.2036    1.4942 H   0  0  0  0  0  0  0  0  0  0  0  0
    5.6320    5.9467    5.4554 H   0  0  0  0  0  0  0  0  0  0  0  0
    7.2010    4.2738    4.4140 H   0  0  0  0  0  0  0  0  0  0  0  0
    4.2556    7.9407    4.9819 H   0  0  0  0  0  0  0  0  0  0  0  0
    8.3332    1.0425    0.4699 H   0  0  0  0  0  0  0  0  0  0  0  0
    9.2807    2.1666    1.2342 H   0  0  0  0  0  0  0  0  0  0  0  0
    3.5779    1.6309   -2.2725 H   0  0  0  0  0  0  0  0  0  0  0  0
    5.1110    1.1850   -1.4827 H   0  0  0  0  0  0  0  0  0  0  0  0
    4.6682   -2.6261   -2.3567 H   0  0  0  0  0  0  0  0  0  0  0  0
    6.7435   -0.6799    0.5261 H   0  0  0  0  0  0  0  0  0  0  0  0
    5.0132   -1.0373    0.5068 H   0  0  0  0  0  0  0  0  0  0  0  0
    4.6390    0.2121   -3.5300 H   0  0  0  0  0  0  0  0  0  0  0  0
    3.9506   -1.3593   -4.1589 H   0  0  0  0  0  0  0  0  0  0  0  0
    5.3385   -3.1379   -4.7533 H   0  0  0  0  0  0  0  0  0  0  0  0
    7.4049   -3.6820   -5.9388 H   0  0  0  0  0  0  0  0  0  0  0  0
    9.0014    0.2097   -4.9073 H   0  0  0  0  0  0  0  0  0  0  0  0
    6.8964    0.7229   -3.7150 H   0  0  0  0  0  0  0  0  0  0  0  0
   10.0488   -2.8656   -5.9218 H   0  0  0  0  0  0  0  0  0  0  0  0
    0.7028   -2.9019   -1.8791 H   0  0  0  0  0  0  0  0  0  0  0  0
    1.2690   -1.1736   -2.0787 H   0  0  0  0  0  0  0  0  0  0  0  0
    0.6282   -1.6893   -0.4856 H   0  0  0  0  0  0  0  0  0  0  0  0
    3.0699   -2.1735    1.2076 H   0  0  0  0  0  0  0  0  0  0  0  0
    0.8673   -3.5155    2.7523 H   0  0  0  0  0  0  0  0  0  0  0  0
    1.0282   -6.3991    2.0141 H   0  0  0  0  0  0  0  0  0  0  0  0
   -1.8211   -7.0981    2.0303 H   0  0  0  0  0  0  0  0  0  0  0  0
   -2.8021   -4.7038    0.5564 H   0  0  0  0  0  0  0  0  0  0  0  0
   -6.1243   -5.8072    0.2499 H   0  0  0  0  0  0  0  0  0  0  0  0
   -3.8558   -4.0146   -0.7700 H   0  0  0  0  0  0  0  0  0  0  0  0
   -4.0183   -1.8334   -0.6283 H   0  0  0  0  0  0  0  0  0  0  0  0
   -6.5756   -0.5760    0.5217 H   0  0  0  0  0  0  0  0  0  0  0  0
   -3.2845   -2.4292    1.6033 H   0  0  0  0  0  0  0  0  0  0  0  0
   -3.5887   -0.6887    1.4113 H   0  0  0  0  0  0  0  0  0  0  0  0
   -5.3863    0.5459    2.7549 H   0  0  0  0  0  0  0  0  0  0  0  0
   -7.1127   -0.0477    4.5279 H   0  0  0  0  0  0  0  0  0  0  0  0
   -4.8830   -4.4416    2.5649 H   0  0  0  0  0  0  0  0  0  0  0  0
   -6.3164   -5.8286    4.1111 H   0  0  0  0  0  0  0  0  0  0  0  0
   -7.9073   -4.7989    5.6597 H   0  0  0  0  0  0  0  0  0  0  0  0
   -8.1012   -2.3210    5.6840 H   0  0  0  0  0  0  0  0  0  0  0  0
   -4.3381   -6.2514   -2.1931 H   0  0  0  0  0  0  0  0  0  0  0  0
   -5.5317   -7.3633   -1.5383 H   0  0  0  0  0  0  0  0  0  0  0  0
   -6.7026   -5.5737   -4.6427 H   0  0  0  0  0  0  0  0  0  0  0  0
   -6.4718   -7.2316   -4.0168 H   0  0  0  0  0  0  0  0  0  0  0  0
   -0.8672   -6.1096   -0.6377 H   0  0  0  0  0  0  0  0  0  0  0  0
   -1.7240   -7.6533   -0.3749 H   0  0  0  0  0  0  0  0  0  0  0  0
   -0.0203   -7.4042    0.3267 H   0  0  0  0  0  0  0  0  0  0  0  0
    2.4850   -4.8890    4.0699 H   0  0  0  0  0  0  0  0  0  0  0  0
    3.3898   -3.6958    3.1143 H   0  0  0  0  0  0  0  0  0  0  0  0
    4.7692   -4.2576    1.3160 H   0  0  0  0  0  0  0  0  0  0  0  0
    6.2667   -5.8899    0.3369 H   0  0  0  0  0  0  0  0  0  0  0  0
    6.0335   -8.2742    0.8488 H   0  0  0  0  0  0  0  0  0  0  0  0
    4.2814   -8.9985    2.3796 H   0  0  0  0  0  0  0  0  0  0  0  0
    2.7010   -7.3338    3.4154 H   0  0  0  0  0  0  0  0  0  0  0  0
    3.1501   -4.3698   -3.7086 H   0  0  0  0  0  0  0  0  0  0  0  0
  -10.8785    5.8017   -3.9837 H   0  0  0  0  0  0  0  0  0  0  0  0
   -9.7086    7.1406   -3.9362 H   0  0  0  0  0  0  0  0  0  0  0  0
  1  2  1  0
  2  3  2  3
  3  4  1  0
  4  5  1  0
  5  6  1  0
  6  7  1  0
  7  8  1  0
  8  9  1  0
  9 10  2  0
  9 11  1  0
 11 12  1  0
 12 13  1  0
 13 14  2  0
 14 15  1  0
 15 16  2  0
 16 17  1  0
 17 18  2  0
 11 19  1  0
 19 20  1  0
 20 21  2  0
 20 22  1  0
 22 23  1  0
 23 24  1  0
 24 25  1  0
 25 26  1  0
 26 27  1  0
 27 28  2  0
 27 29  1  0
 29 30  1  0
 30 31  1  0
 31 32  2  0
 31 33  1  0
 33 34  1  0
 34 35  1  0
 35 36  2  0
 36 37  1  0
 37 38  2  0
 38 39  1  0
 39 40  2  0
 38 41  1  0
 33 42  1  0
 29 43  1  0
 43 44  1  0
 44 45  2  0
 44 46  1  0
 46 47  1  0
 47 48  1  0
 48 49  2  0
 48 50  1  0
 47 51  1  0
 51 52  1  0
 52 53  2  0
 53 54  1  0
 54 55  2  0
 55 56  1  0
 56 57  2  0
 55 58  1  0
 46 59  1  0
 59 60  1  6
 59 61  1  0
 61 62  1  0
 62 63  2  0
 62 64  1  0
 64 65  1  0
 65 66  1  0
 66 67  2  0
 66 68  1  0
 68 69  1  0
 69 70  1  0
 70 71  2  0
 70 72  1  0
 72 73  1  0
 73 74  1  0
 74 75  2  0
 74 76  1  0
 76 77  1  0
 77 78  1  0
 78 79  2  0
 76 80  1  0
 80 81  1  0
 81 82  2  0
 82 83  1  0
 83 84  1  0
 84 85  2  0
 85 86  1  0
 86 87  2  0
 87 88  1  0
 88 89  2  0
 72 90  1  0
 90 91  1  0
 91 92  2  0
 91 93  1  0
 68 94  1  0
 64 95  1  0
 95 96  1  0
 96 97  2  0
 97 98  1  0
 98 99  2  0
 99100  1  0
100101  2  0
 59102  1  0
102103  2  0
102104  1  0
  2105  1  0
 78  7  1  0
 85 81  1  0
101 96  1  0
 18 13  1  0
 26 22  1  0
 40 35  1  0
 57 52  1  0
 89 84  1  0
  1106  1  0
  1107  1  0
  4108  1  0
  4109  1  0
  5110  1  0
  5111  1  0
  6112  1  0
  6113  1  0
  7114  1  1
  8115  1  0
 11116  1  6
 12117  1  0
 12118  1  0
 14119  1  0
 15120  1  0
 16121  1  0
 17122  1  0
 18123  1  0
 19124  1  0
 22125  1  1
 23126  1  0
 23127  1  0
 24128  1  0
 24129  1  0
 25130  1  0
 25131  1  0
 29132  1  6
 30133  1  0
 33134  1  1
 34135  1  0
 34136  1  0
 36137  1  0
 37138  1  0
 39139  1  0
 40140  1  0
 41141  1  0
 42142  1  0
 42143  1  0
 43144  1  0
 43145  1  0
 47146  1  6
 50147  1  0
 50148  1  0
 51149  1  0
 51150  1  0
 53151  1  0
 54152  1  0
 56153  1  0
 57154  1  0
 58155  1  0
 60156  1  0
 60157  1  0
 60158  1  0
 61159  1  0
 64160  1  1
 65161  1  0
 68162  1  1
 69163  1  0
 72164  1  1
 73165  1  0
 76166  1  6
 77167  1  0
 80168  1  0
 80169  1  0
 82170  1  0
 83171  1  0
 86172  1  0
 87173  1  0
 88174  1  0
 89175  1  0
 90176  1  0
 90177  1  0
 93178  1  0
 93179  1  0
 94180  1  0
 94181  1  0
 94182  1  0
 95183  1  0
 95184  1  0
 97185  1  0
 98186  1  0
 99187  1  0
100188  1  0
101189  1  0
104190  1  0
105191  1  0
105192  1  0
M  END
>  <Ligand ID>  (1) 
LIG0002281

>  <Ligand>  (1) 
CHEMBL2369971

>  <SMILES>  (1) 
NC(=NCCC[C@@H]1NC(=O)[C@@H](Cc2ccccc2)NC(=O)[C@@H]2CCCN2C(=O)[C@@H](NC(=O)[C@H](Cc2ccc(cc2)O)N)CC(=O)N([C@H](C(=O)N)Cc2ccc(cc2)O)[C@](C)(NC(=O)[C@@H](NC(=O)[C@@H](NC(=O)[C@@H](NC(=O)[C@@H](NC1=O)Cc1c[nH]c2c1cccc2)CC(=O)N)C)Cc1ccccc1)C(=O)O)N

>  <CID>  (1) 
73356089.0

>  <ChEMBL ID>  (1) 
nan

>  <InChiKey>  (1) 
SEYGCFZCZOOPJP-PPTGEIPLSA-N

>  <InChi>  (1) 
InChI=1S/C72H87N17O16/c1-39-61(95)82-52(33-41-15-7-4-8-16-41)67(101)87-72(2,70(104)105)89(57(60(75)94)34-43-23-27-46(91)28-24-43)59(93)37-55(86-62(96)48(73)31-42-21-25-45(90)26-22-42)69(103)88-30-12-20-56(88)68(102)85-51(32-40-13-5-3-6-14-40)65(99)81-50(19-11-29-78-71(76)77)63(97)83-53(35-44-38-79-49-18-10-9-17-47(44)49)66(100)84-54(36-58(74)92)64(98)80-39/h3-10,13-18,21-28,38-39,48,50-57,79,90-91H,11-12,19-20,29-37,73H2,1-2H3,(H2,74,92)(H2,75,94)(H,80,98)(H,81,99)(H,82,95)(H,83,97)(H,84,100)(H,85,102)(H,86,96)(H,87,101)(H,104,105)(H4,76,77,78)/t39-,48-,50-,51+,52-,53-,54-,55-,56-,57-,72-/m0/s1

>  <IUPAC Name>  (1) 
(3S,7S,10S,13S,16S,19S,22S,25R,28S)-6-[(2S)-1-amino-3-(4-hydroxyphenyl)-1-oxopropan-2-yl]-3-[[(2S)-2-amino-3-(4-hydroxyphenyl)propanoyl]amino]-16-(2-amino-2-oxoethyl)-10,25-dibenzyl-22-[3-(diaminomethylideneamino)propyl]-19-(1H-indol-3-ylmethyl)-7,13-dimethyl-2,5,9,12,15,18,21,24,27-nonaoxo-1,6,8,11,14,17,20,23,26-nonazabicyclo[26.3.0]hentriacontane-7-carboxylic acid

$$$$
