
     RDKit          3D

 58 61  0  0  0  0  0  0  0  0999 V2000
   -4.2095   -1.8530   -4.5603 C   0  0  0  0  0  0  0  0  0  0  0  0
   -4.5148   -0.4182   -4.1344 C   0  0  0  0  0  0  0  0  0  0  0  0
   -4.2203   -0.3258   -2.6720 C   0  0  0  0  0  0  0  0  0  0  0  0
   -4.4751    1.0523   -2.0881 C   0  0  0  0  0  0  0  0  0  0  0  0
   -4.1394    0.9641   -0.6668 N   0  0  0  0  0  0  0  0  0  0  0  0
   -5.1873    0.5931    0.2215 C   0  0  0  0  0  0  0  0  0  0  0  0
   -6.3580    0.3457   -0.1622 O   0  0  0  0  0  0  0  0  0  0  0  0
   -4.9292    0.4837    1.6566 C   0  0  0  0  0  0  0  0  0  0  0  0
   -5.1225    1.6372    2.4011 C   0  0  0  0  0  0  0  0  0  0  0  0
   -4.9103    1.6549    3.7641 C   0  0  0  0  0  0  0  0  0  0  0  0
   -4.4944    0.4719    4.3670 C   0  0  0  0  0  0  0  0  0  0  0  0
   -4.2992   -0.6835    3.6311 C   0  0  0  0  0  0  0  0  0  0  0  0
   -4.5215   -0.6673    2.2625 C   0  0  0  0  0  0  0  0  0  0  0  0
   -4.3436   -1.7804    1.4895 F   0  0  0  0  0  0  0  0  0  0  0  0
   -2.8082    1.2425   -0.2067 C   0  0  0  0  0  0  0  0  0  0  0  0
   -2.1124    2.1110    0.1767 N   0  0  0  0  0  0  0  0  0  0  0  0
   -0.8719    2.0143    0.5350 N   0  0  0  0  0  0  0  0  0  0  0  0
   -0.2660    0.9302    0.5051 C   0  0  0  0  0  0  0  0  0  0  0  0
   -1.5788   -0.2042   -0.1186 S   0  0  0  0  0  0  0  0  0  0  0  0
    1.0755    0.4769    0.8237 C   0  0  0  0  0  0  0  0  0  0  0  0
    1.9644    1.4500    1.2865 C   0  0  0  0  0  0  0  0  0  0  0  0
    3.2466    1.0770    1.6029 C   0  0  0  0  0  0  0  0  0  0  0  0
    3.7020   -0.2348    1.4823 C   0  0  0  0  0  0  0  0  0  0  0  0
    2.7939   -1.1535    1.0245 C   0  0  0  0  0  0  0  0  0  0  0  0
    1.4859   -0.8291    0.6906 C   0  0  0  0  0  0  0  0  0  0  0  0
    5.0972   -0.5396    1.8487 C   0  0  0  0  0  0  0  0  0  0  0  0
    5.9388   -0.3693    0.6879 N   0  0  0  0  0  0  0  0  0  0  0  0
    5.6256   -1.2138   -0.4378 C   0  0  0  0  0  0  0  0  0  0  0  0
    7.1313   -1.3887   -0.6234 C   0  0  0  0  0  0  0  0  0  0  0  0
    7.2941   -0.8718    0.7998 C   0  0  0  0  0  0  0  0  0  0  0  0
    7.6034   -0.4437   -1.6653 C   0  0  0  0  0  0  0  0  0  0  0  0
    6.8565    0.3520   -2.2706 O   0  0  0  0  0  0  0  0  0  0  0  0
    8.9553   -0.4289   -2.0012 O   0  0  0  0  0  0  0  0  0  0  0  0
   -4.1937   -1.9764   -5.6533 H   0  0  0  0  0  0  0  0  0  0  0  0
   -4.9388   -2.5510   -4.1202 H   0  0  0  0  0  0  0  0  0  0  0  0
   -3.2221   -2.1282   -4.1580 H   0  0  0  0  0  0  0  0  0  0  0  0
   -3.7977    0.2304   -4.6837 H   0  0  0  0  0  0  0  0  0  0  0  0
   -5.5559   -0.1675   -4.3569 H   0  0  0  0  0  0  0  0  0  0  0  0
   -3.1869   -0.6158   -2.4487 H   0  0  0  0  0  0  0  0  0  0  0  0
   -4.9200   -1.0196   -2.1237 H   0  0  0  0  0  0  0  0  0  0  0  0
   -3.8349    1.7862   -2.6226 H   0  0  0  0  0  0  0  0  0  0  0  0
   -5.5422    1.3060   -2.2306 H   0  0  0  0  0  0  0  0  0  0  0  0
   -5.4490    2.5649    1.9264 H   0  0  0  0  0  0  0  0  0  0  0  0
   -5.0604    2.5483    4.3387 H   0  0  0  0  0  0  0  0  0  0  0  0
   -4.3226    0.4769    5.4547 H   0  0  0  0  0  0  0  0  0  0  0  0
   -3.9727   -1.6094    4.1094 H   0  0  0  0  0  0  0  0  0  0  0  0
    1.6409    2.4735    1.3903 H   0  0  0  0  0  0  0  0  0  0  0  0
    3.9166    1.8612    1.9618 H   0  0  0  0  0  0  0  0  0  0  0  0
    3.0987   -2.1847    0.9149 H   0  0  0  0  0  0  0  0  0  0  0  0
    0.7822   -1.5688    0.3303 H   0  0  0  0  0  0  0  0  0  0  0  0
    5.2124   -1.5518    2.2896 H   0  0  0  0  0  0  0  0  0  0  0  0
    5.4185    0.2119    2.6128 H   0  0  0  0  0  0  0  0  0  0  0  0
    5.1207   -0.7323   -1.2912 H   0  0  0  0  0  0  0  0  0  0  0  0
    5.2084   -2.2183   -0.2112 H   0  0  0  0  0  0  0  0  0  0  0  0
    7.4785   -2.4252   -0.7627 H   0  0  0  0  0  0  0  0  0  0  0  0
    7.4371   -1.6395    1.5703 H   0  0  0  0  0  0  0  0  0  0  0  0
    7.9853   -0.0047    0.8163 H   0  0  0  0  0  0  0  0  0  0  0  0
    9.2896    0.2482   -2.7024 H   0  0  0  0  0  0  0  0  0  0  0  0
  1  2  1  0
  2  3  1  0
  3  4  1  0
  4  5  1  0
  5  6  1  0
  6  7  2  0
  6  8  1  0
  8  9  2  0
  9 10  1  0
 10 11  2  0
 11 12  1  0
 12 13  2  0
 13 14  1  0
  5 15  1  0
 15 16  2  0
 16 17  1  0
 17 18  2  0
 18 19  1  0
 18 20  1  0
 20 21  2  0
 21 22  1  0
 22 23  2  0
 23 24  1  0
 24 25  2  0
 23 26  1  0
 26 27  1  0
 27 28  1  0
 28 29  1  0
 29 30  1  0
 29 31  1  0
 31 32  2  0
 31 33  1  0
 13  8  1  0
 19 15  1  0
 25 20  1  0
 30 27  1  0
  1 34  1  0
  1 35  1  0
  1 36  1  0
  2 37  1  0
  2 38  1  0
  3 39  1  0
  3 40  1  0
  4 41  1  0
  4 42  1  0
  9 43  1  0
 10 44  1  0
 11 45  1  0
 12 46  1  0
 21 47  1  0
 22 48  1  0
 24 49  1  0
 25 50  1  0
 26 51  1  0
 26 52  1  0
 28 53  1  0
 28 54  1  0
 29 55  1  0
 30 56  1  0
 30 57  1  0
 33 58  1  0
M  END
>  <Ligand ID>  (1) 
LIG0004321

>  <Ligand>  (1) 
CHEMBL2207778

>  <SMILES>  (1) 
CCCCN(C(=O)c1ccccc1F)c1nnc(s1)c1ccc(cc1)CN1CC(C1)C(=O)O

>  <CID>  (1) 
45377662.0

>  <ChEMBL ID>  (1) 
nan

>  <InChiKey>  (1) 
GJAIOWLYTXRGGD-UHFFFAOYSA-N

>  <InChi>  (1) 
InChI=1S/C24H25FN4O3S/c1-2-3-12-29(22(30)19-6-4-5-7-20(19)25)24-27-26-21(33-24)17-10-8-16(9-11-17)13-28-14-18(15-28)23(31)32/h4-11,18H,2-3,12-15H2,1H3,(H,31,32)

>  <IUPAC Name>  (1) 
1-[[4-[5-[butyl-(2-fluorobenzoyl)amino]-1,3,4-thiadiazol-2-yl]phenyl]methyl]azetidine-3-carboxylic acid

$$$$
