
     RDKit          3D

 37 38  0  0  0  0  0  0  0  0999 V2000
    4.6524   -0.3485   -0.6836 C   0  0  0  0  0  0  0  0  0  0  0  0
    3.8700   -0.4201    0.5952 C   0  0  0  0  0  0  0  0  0  0  0  0
    2.5051    0.1575    0.4886 C   0  0  0  0  0  0  0  0  0  0  0  0
    1.4157   -0.6201    0.1182 C   0  0  0  0  0  0  0  0  0  0  0  0
    0.1651    0.0032    0.0423 C   0  0  0  0  0  0  0  0  0  0  0  0
   -0.9698   -0.8073   -0.3685 C   0  0  1  0  0  0  0  0  0  0  0  0
   -1.0490   -2.2048    0.1294 C   0  0  0  0  0  0  0  0  0  0  0  0
   -2.4741   -2.5335   -0.0113 N   0  0  0  0  0  0  0  0  0  0  0  0
   -3.1887   -1.2712   -0.1680 C   0  0  0  0  0  0  0  0  0  0  0  0
   -2.2229   -0.2679    0.3445 C   0  0  2  0  0  0  0  0  0  0  0  0
   -2.3684    1.0807   -0.1021 N   0  0  0  0  0  0  0  0  0  0  0  0
   -1.2940    1.9835    0.2689 C   0  0  0  0  0  0  0  0  0  0  0  0
   -1.4971    3.1902    0.5107 O   0  0  0  0  0  0  0  0  0  0  0  0
    0.0522    1.3694    0.3380 C   0  0  0  0  0  0  0  0  0  0  0  0
    1.1415    2.1291    0.7039 C   0  0  0  0  0  0  0  0  0  0  0  0
    2.3677    1.5003    0.7739 C   0  0  0  0  0  0  0  0  0  0  0  0
    0.9350    3.8327    1.0601 Cl  0  0  0  0  0  0  0  0  0  0  0  0
   -3.4686    1.6054   -0.8641 C   0  0  0  0  0  0  0  0  0  0  0  0
    0.6862    0.0000    0.0000 Cl  0  0  0  0  0  0  0  0  0  0  0  0
    4.0935   -0.6943   -1.5606 H   0  0  0  0  0  0  0  0  0  0  0  0
    5.1154    0.6574   -0.8387 H   0  0  0  0  0  0  0  0  0  0  0  0
    5.5245   -1.0329   -0.5524 H   0  0  0  0  0  0  0  0  0  0  0  0
    4.4689    0.0816    1.3869 H   0  0  0  0  0  0  0  0  0  0  0  0
    3.7677   -1.5078    0.8350 H   0  0  0  0  0  0  0  0  0  0  0  0
    1.5406   -1.6715   -0.1020 H   0  0  0  0  0  0  0  0  0  0  0  0
   -1.1902   -0.7105   -1.4548 H   0  0  0  0  0  0  0  0  0  0  0  0
   -0.4087   -2.9301   -0.4176 H   0  0  0  0  0  0  0  0  0  0  0  0
   -0.8201   -2.1821    1.2167 H   0  0  0  0  0  0  0  0  0  0  0  0
   -2.8527   -2.9728    0.8656 H   0  0  0  0  0  0  0  0  0  0  0  0
   -3.3114   -1.1137   -1.2797 H   0  0  0  0  0  0  0  0  0  0  0  0
   -4.1735   -1.2684    0.3416 H   0  0  0  0  0  0  0  0  0  0  0  0
   -2.1331   -0.3706    1.4410 H   0  0  0  0  0  0  0  0  0  0  0  0
    3.2176    2.1097    1.0632 H   0  0  0  0  0  0  0  0  0  0  0  0
   -3.9633    0.8089   -1.4517 H   0  0  0  0  0  0  0  0  0  0  0  0
   -4.2305    1.9474   -0.1148 H   0  0  0  0  0  0  0  0  0  0  0  0
   -3.2167    2.4712   -1.4751 H   0  0  0  0  0  0  0  0  0  0  0  0
   -0.6862    0.0000    0.0000 H   0  0  0  0  0  0  0  0  0  0  0  0
  1  2  1  0
  2  3  1  0
  3  4  2  0
  4  5  1  0
  5  6  1  0
  6  7  1  0
  7  8  1  0
  8  9  1  0
  9 10  1  0
 10 11  1  0
 11 12  1  0
 12 13  2  0
 12 14  1  0
 14 15  1  0
 15 16  2  0
 15 17  1  0
 11 18  1  0
 16  3  1  0
 14  5  2  0
 10  6  1  0
  1 20  1  0
  1 21  1  0
  1 22  1  0
  2 23  1  0
  2 24  1  0
  4 25  1  0
  6 26  1  6
  7 27  1  0
  7 28  1  0
  8 29  1  0
  9 30  1  0
  9 31  1  0
 10 32  1  1
 16 33  1  0
 18 34  1  0
 18 35  1  0
 18 36  1  0
 19 37  1  0
M  END
>  <Ligand ID>  (1) 
LIG0004103

>  <Ligand>  (1) 
CHEMBL2337502

>  <SMILES>  (1) 
CCc1cc2[C@H]3CNC[C@@H]3N(C(=O)c2c(c1)Cl)C.Cl

>  <CID>  (1) 
11652358.0

>  <ChEMBL ID>  (1) 
nan

>  <InChiKey>  (1) 
SPUFPAWPFKPQSW-IYJPBCIQSA-N

>  <InChi>  (1) 
InChI=1S/C14H17ClN2O.ClH/c1-3-8-4-9-10-6-16-7-12(10)17(2)14(18)13(9)11(15)5-8;/h4-5,10,12,16H,3,6-7H2,1-2H3;1H/t10-,12+;/m1./s1

>  <IUPAC Name>  (1) 
(3aR,9bS)-6-chloro-8-ethyl-4-methyl-2,3,3a,9b-tetrahydro-1H-pyrrolo[3,4-c]isoquinolin-5-one;hydrochloride

$$$$
