
     RDKit          3D

122125  0  0  0  0  0  0  0  0999 V2000
   -5.9913    5.1542    0.5529 C   0  0  0  0  0  0  0  0  0  0  0  0
   -5.6866    3.6590    0.5768 C   0  0  0  0  0  0  0  0  0  0  0  0
   -5.7405    3.0755   -0.8063 C   0  0  0  0  0  0  0  0  0  0  0  0
   -5.4645    1.6580   -0.9114 C   0  0  0  0  0  0  0  0  0  0  0  0
   -4.2109    0.9570   -0.7009 C   0  0  2  0  0  0  0  0  0  0  0  0
   -4.4804   -0.5178   -0.8718 N   0  0  0  0  0  0  0  0  0  0  0  0
   -3.7743   -1.3367   -1.7626 C   0  0  0  0  0  0  0  0  0  0  0  0
   -2.8825   -0.7472   -2.4228 O   0  0  0  0  0  0  0  0  0  0  0  0
   -3.9581   -2.7752   -2.0047 C   0  0  2  0  0  0  0  0  0  0  0  0
   -3.9632   -3.7019   -0.8459 C   0  0  0  0  0  0  0  0  0  0  0  0
   -5.0081   -3.4695    0.1656 C   0  0  0  0  0  0  0  0  0  0  0  0
   -6.4245   -3.5030   -0.3604 C   0  0  0  0  0  0  0  0  0  0  0  0
   -6.7846   -4.8192   -0.9836 C   0  0  0  0  0  0  0  0  0  0  0  0
   -2.9814   -3.2678   -3.0155 N   0  0  0  0  0  0  0  0  0  0  0  0
   -1.5609   -3.1720   -2.7151 C   0  0  0  0  0  0  0  0  0  0  0  0
   -1.3676   -2.6175   -1.6170 O   0  0  0  0  0  0  0  0  0  0  0  0
   -0.5186   -3.6772   -3.6258 C   0  0  0  0  0  0  0  0  0  0  0  0
    0.8833   -3.4171   -3.1951 C   0  0  0  0  0  0  0  0  0  0  0  0
    1.2164   -4.0697   -1.8768 C   0  0  2  0  0  0  0  0  0  0  0  0
    2.5431   -3.5661   -1.4055 N   0  0  0  0  0  0  0  0  0  0  0  0
    2.5171   -2.2802   -0.8705 C   0  0  0  0  0  0  0  0  0  0  0  0
    1.3901   -1.6713   -1.0361 O   0  0  0  0  0  0  0  0  0  0  0  0
    3.5050   -1.4550   -0.1635 C   0  0  1  0  0  0  0  0  0  0  0  0
    3.0389   -0.0758   -0.1507 N   0  0  0  0  0  0  0  0  0  0  0  0
    2.6184    0.7164    0.9132 C   0  0  0  0  0  0  0  0  0  0  0  0
    2.6084    0.2667    2.0451 O   0  0  0  0  0  0  0  0  0  0  0  0
    2.1633    2.1277    0.6214 C   0  0  1  0  0  0  0  0  0  0  0  0
    1.0529    2.3038    1.5771 N   0  0  0  0  0  0  0  0  0  0  0  0
   -0.2397    2.3042    1.0039 C   0  0  0  0  0  0  0  0  0  0  0  0
   -0.3073    2.1895   -0.2303 O   0  0  0  0  0  0  0  0  0  0  0  0
   -1.5396    2.4287    1.7300 C   0  0  2  0  0  0  0  0  0  0  0  0
   -2.5322    2.3742    0.6602 N   0  0  0  0  0  0  0  0  0  0  0  0
   -3.2776    1.1627    0.3782 C   0  0  0  0  0  0  0  0  0  0  0  0
   -3.0310    0.2457    1.1853 O   0  0  0  0  0  0  0  0  0  0  0  0
   -1.5975    3.5780    2.6433 C   0  0  0  0  0  0  0  0  0  0  0  0
   -1.4195    4.9147    2.0521 C   0  0  0  0  0  0  0  0  0  0  0  0
   -0.1974    5.5097    1.8239 C   0  0  0  0  0  0  0  0  0  0  0  0
   -0.1168    6.7884    1.2641 C   0  0  0  0  0  0  0  0  0  0  0  0
   -1.2439    7.5030    0.9199 C   0  0  0  0  0  0  0  0  0  0  0  0
   -2.4631    6.9128    1.1468 C   0  0  0  0  0  0  0  0  0  0  0  0
   -2.5384    5.6503    1.7000 C   0  0  0  0  0  0  0  0  0  0  0  0
    3.2318    3.1410    0.7844 C   0  0  0  0  0  0  0  0  0  0  0  0
    3.8470    3.2566    2.1348 C   0  0  0  0  0  0  0  0  0  0  0  0
    4.9123    4.3621    2.0464 C   0  0  0  0  0  0  0  0  0  0  0  0
    5.8885    3.9648    1.0534 N   0  0  0  0  0  0  0  0  0  0  0  0
    6.0793    4.5097   -0.0778 C   0  0  0  0  0  0  0  0  0  0  0  0
    5.3612    5.6257   -0.5853 N   0  0  0  0  0  0  0  0  0  0  0  0
    7.1121    3.9393   -0.9040 N   0  0  0  0  0  0  0  0  0  0  0  0
    3.4885   -1.9697    1.3263 C   0  0  0  0  0  0  0  0  0  0  0  0
    3.8942   -3.4183    1.3089 C   0  0  0  0  0  0  0  0  0  0  0  0
    3.0577   -4.5037    1.4648 C   0  0  0  0  0  0  0  0  0  0  0  0
    3.8244   -5.6080    1.3904 N   0  0  0  0  0  0  0  0  0  0  0  0
    5.1067   -5.2600    1.1945 C   0  0  0  0  0  0  0  0  0  0  0  0
    5.1781   -3.8875    1.1394 C   0  0  0  0  0  0  0  0  0  0  0  0
    6.4096   -3.3027    0.9442 C   0  0  0  0  0  0  0  0  0  0  0  0
    7.5332   -4.0792    0.8090 C   0  0  0  0  0  0  0  0  0  0  0  0
    7.5039   -5.4707    0.8585 C   0  0  0  0  0  0  0  0  0  0  0  0
    6.2385   -6.0325    1.0579 C   0  0  0  0  0  0  0  0  0  0  0  0
    1.1477   -5.5136   -1.8909 C   0  0  0  0  0  0  0  0  0  0  0  0
    0.1188   -6.1754   -2.2377 O   0  0  0  0  0  0  0  0  0  0  0  0
    2.2724   -6.3162   -1.5018 N   0  0  0  0  0  0  0  0  0  0  0  0
   -5.0943    5.6737    0.1690 H   0  0  0  0  0  0  0  0  0  0  0  0
   -6.2110    5.4737    1.5710 H   0  0  0  0  0  0  0  0  0  0  0  0
   -6.8980    5.3074   -0.0687 H   0  0  0  0  0  0  0  0  0  0  0  0
   -4.8462    3.3928    1.2033 H   0  0  0  0  0  0  0  0  0  0  0  0
   -6.5880    3.2463    1.1695 H   0  0  0  0  0  0  0  0  0  0  0  0
   -6.8254    3.2342   -1.1279 H   0  0  0  0  0  0  0  0  0  0  0  0
   -5.1979    3.7238   -1.5452 H   0  0  0  0  0  0  0  0  0  0  0  0
   -6.2281    1.1110   -0.2186 H   0  0  0  0  0  0  0  0  0  0  0  0
   -5.8954    1.2581   -1.9227 H   0  0  0  0  0  0  0  0  0  0  0  0
   -3.5817    1.1316   -1.6656 H   0  0  0  0  0  0  0  0  0  0  0  0
   -5.2218   -0.8856   -0.3190 H   0  0  0  0  0  0  0  0  0  0  0  0
   -4.9439   -2.9580   -2.5412 H   0  0  0  0  0  0  0  0  0  0  0  0
   -4.1055   -4.7328   -1.2592 H   0  0  0  0  0  0  0  0  0  0  0  0
   -2.9780   -3.6266   -0.3208 H   0  0  0  0  0  0  0  0  0  0  0  0
   -4.8751   -2.6921    0.9037 H   0  0  0  0  0  0  0  0  0  0  0  0
   -4.9596   -4.4292    0.8363 H   0  0  0  0  0  0  0  0  0  0  0  0
   -7.1021   -3.3079    0.4895 H   0  0  0  0  0  0  0  0  0  0  0  0
   -6.5972   -2.7168   -1.1267 H   0  0  0  0  0  0  0  0  0  0  0  0
   -6.0670   -5.0528   -1.7874 H   0  0  0  0  0  0  0  0  0  0  0  0
   -7.7573   -4.6396   -1.5265 H   0  0  0  0  0  0  0  0  0  0  0  0
   -6.9815   -5.6342   -0.2778 H   0  0  0  0  0  0  0  0  0  0  0  0
   -3.2058   -3.6667   -3.9029 H   0  0  0  0  0  0  0  0  0  0  0  0
   -0.6468   -4.7411   -3.8712 H   0  0  0  0  0  0  0  0  0  0  0  0
   -0.7009   -3.1315   -4.6044 H   0  0  0  0  0  0  0  0  0  0  0  0
    1.1727   -2.3542   -3.2252 H   0  0  0  0  0  0  0  0  0  0  0  0
    1.5457   -3.9457   -3.9503 H   0  0  0  0  0  0  0  0  0  0  0  0
    0.4416   -3.6527   -1.1669 H   0  0  0  0  0  0  0  0  0  0  0  0
    3.3994   -4.0778   -1.4572 H   0  0  0  0  0  0  0  0  0  0  0  0
    4.5180   -1.6187   -0.4391 H   0  0  0  0  0  0  0  0  0  0  0  0
    3.0191    0.3799   -1.0888 H   0  0  0  0  0  0  0  0  0  0  0  0
    1.8231    2.1416   -0.4283 H   0  0  0  0  0  0  0  0  0  0  0  0
    1.1324    2.4202    2.5667 H   0  0  0  0  0  0  0  0  0  0  0  0
   -1.6211    1.4816    2.3433 H   0  0  0  0  0  0  0  0  0  0  0  0
   -2.7775    3.1477    0.0439 H   0  0  0  0  0  0  0  0  0  0  0  0
   -2.5846    3.5057    3.1951 H   0  0  0  0  0  0  0  0  0  0  0  0
   -0.8534    3.3923    3.4751 H   0  0  0  0  0  0  0  0  0  0  0  0
    0.7152    4.9957    2.0798 H   0  0  0  0  0  0  0  0  0  0  0  0
    0.8325    7.2677    1.0762 H   0  0  0  0  0  0  0  0  0  0  0  0
   -1.2247    8.4918    0.4845 H   0  0  0  0  0  0  0  0  0  0  0  0
   -3.3938    7.4096    0.9049 H   0  0  0  0  0  0  0  0  0  0  0  0
   -3.4870    5.2033    1.8842 H   0  0  0  0  0  0  0  0  0  0  0  0
    4.0312    2.9039    0.0633 H   0  0  0  0  0  0  0  0  0  0  0  0
    2.8077    4.1188    0.4337 H   0  0  0  0  0  0  0  0  0  0  0  0
    3.1636    3.5939    2.9205 H   0  0  0  0  0  0  0  0  0  0  0  0
    4.4036    2.3451    2.3780 H   0  0  0  0  0  0  0  0  0  0  0  0
    4.4288    5.2937    1.6851 H   0  0  0  0  0  0  0  0  0  0  0  0
    5.3706    4.5448    3.0420 H   0  0  0  0  0  0  0  0  0  0  0  0
    5.7750    6.2492   -1.3118 H   0  0  0  0  0  0  0  0  0  0  0  0
    4.3881    5.8790   -0.2616 H   0  0  0  0  0  0  0  0  0  0  0  0
    6.8753    3.3210   -1.7279 H   0  0  0  0  0  0  0  0  0  0  0  0
    8.1151    4.1313   -0.6965 H   0  0  0  0  0  0  0  0  0  0  0  0
    2.4534   -1.8679    1.6612 H   0  0  0  0  0  0  0  0  0  0  0  0
    4.2324   -1.3696    1.8385 H   0  0  0  0  0  0  0  0  0  0  0  0
    1.9904   -4.5076    1.6183 H   0  0  0  0  0  0  0  0  0  0  0  0
    3.4802   -6.5885    1.4722 H   0  0  0  0  0  0  0  0  0  0  0  0
    6.4158   -2.2137    0.9078 H   0  0  0  0  0  0  0  0  0  0  0  0
    8.5066   -3.5942    0.6534 H   0  0  0  0  0  0  0  0  0  0  0  0
    8.3933   -6.0773    0.7518 H   0  0  0  0  0  0  0  0  0  0  0  0
    6.2224   -7.1125    1.0972 H   0  0  0  0  0  0  0  0  0  0  0  0
    2.2912   -6.8484   -0.5943 H   0  0  0  0  0  0  0  0  0  0  0  0
    3.0657   -6.3289   -2.1884 H   0  0  0  0  0  0  0  0  0  0  0  0
  1  2  1  0
  2  3  1  0
  3  4  1  0
  4  5  1  0
  5  6  1  0
  6  7  1  0
  7  8  2  0
  7  9  1  0
  9 10  1  0
 10 11  1  0
 11 12  1  0
 12 13  1  0
  9 14  1  0
 14 15  1  0
 15 16  2  0
 15 17  1  0
 17 18  1  0
 18 19  1  0
 19 20  1  0
 20 21  1  0
 21 22  2  0
 21 23  1  0
 23 24  1  0
 24 25  1  0
 25 26  2  0
 25 27  1  0
 27 28  1  0
 28 29  1  0
 29 30  2  0
 29 31  1  0
 31 32  1  0
 32 33  1  0
 33 34  2  0
 31 35  1  0
 35 36  1  0
 36 37  2  0
 37 38  1  0
 38 39  2  0
 39 40  1  0
 40 41  2  0
 27 42  1  0
 42 43  1  0
 43 44  1  0
 44 45  1  0
 45 46  2  3
 46 47  1  0
 46 48  1  0
 23 49  1  0
 49 50  1  0
 50 51  2  0
 51 52  1  0
 52 53  1  0
 53 54  2  0
 54 55  1  0
 55 56  2  0
 56 57  1  0
 57 58  2  0
 19 59  1  0
 59 60  2  0
 59 61  1  0
 33  5  1  0
 41 36  1  0
 54 50  1  0
 58 53  1  0
  1 62  1  0
  1 63  1  0
  1 64  1  0
  2 65  1  0
  2 66  1  0
  3 67  1  0
  3 68  1  0
  4 69  1  0
  4 70  1  0
  5 71  1  6
  6 72  1  0
  9 73  1  6
 10 74  1  0
 10 75  1  0
 11 76  1  0
 11 77  1  0
 12 78  1  0
 12 79  1  0
 13 80  1  0
 13 81  1  0
 13 82  1  0
 14 83  1  0
 17 84  1  0
 17 85  1  0
 18 86  1  0
 18 87  1  0
 19 88  1  1
 20 89  1  0
 23 90  1  6
 24 91  1  0
 27 92  1  6
 28 93  1  0
 31 94  1  1
 32 95  1  0
 35 96  1  0
 35 97  1  0
 37 98  1  0
 38 99  1  0
 39100  1  0
 40101  1  0
 41102  1  0
 42103  1  0
 42104  1  0
 43105  1  0
 43106  1  0
 44107  1  0
 44108  1  0
 47109  1  0
 47110  1  0
 48111  1  0
 48112  1  0
 49113  1  0
 49114  1  0
 51115  1  0
 52116  1  0
 55117  1  0
 56118  1  0
 57119  1  0
 58120  1  0
 61121  1  0
 61122  1  0
M  END
>  <Ligand ID>  (1) 
LIG0001841

>  <Ligand>  (1) 
CHEMBL380638

>  <SMILES>  (1) 
CCCC[C@@H]1NC(=O)[C@H](CCCC)NC(=O)CC[C@H](NC(=O)[C@@H](NC(=O)[C@@H](NC(=O)[C@H](NC1=O)Cc1ccccc1)CCCN=C(N)N)Cc1c[nH]c2c1cccc2)C(=O)N

>  <CID>  (1) 
11707715.0

>  <ChEMBL ID>  (1) 
nan

>  <InChiKey>  (1) 
WGLOHHGRWPHJBM-MAVCTHMOSA-N

>  <InChi>  (1) 
InChI=1S/C43H61N11O7/c1-3-5-16-31-38(57)51-32(17-6-4-2)39(58)53-34(23-26-13-8-7-9-14-26)41(60)52-33(19-12-22-47-43(45)46)40(59)54-35(24-27-25-48-29-18-11-10-15-28(27)29)42(61)50-30(37(44)56)20-21-36(55)49-31/h7-11,13-15,18,25,30-35,48H,3-6,12,16-17,19-24H2,1-2H3,(H2,44,56)(H,49,55)(H,50,61)(H,51,57)(H,52,60)(H,53,58)(H,54,59)(H4,45,46,47)/t30-,31-,32-,33-,34+,35-/m0/s1

>  <IUPAC Name>  (1) 
(2S,5S,8R,11S,14S,17S)-8-benzyl-2,5-dibutyl-11-[3-(diaminomethylideneamino)propyl]-14-(1H-indol-3-ylmethyl)-3,6,9,12,15,20-hexaoxo-1,4,7,10,13,16-hexazacycloicosane-17-carboxamide

$$$$
