
     RDKit          3D

 48 50  0  0  0  0  0  0  0  0999 V2000
   -5.5258   -2.4616    0.1638 N   0  0  0  0  0  0  0  0  0  0  0  0
   -4.2372   -1.7246    0.3487 C   0  0  0  0  0  0  0  0  0  0  0  0
   -4.4901   -0.3629   -0.1549 C   0  0  0  0  0  0  0  0  0  0  0  0
   -3.4701    0.6789   -0.1008 C   0  0  0  0  0  0  0  0  0  0  0  0
   -2.1814    0.5943   -0.7803 C   0  0  0  0  0  0  0  0  0  0  0  0
   -1.2227   -0.5016   -0.4022 C   0  0  0  0  0  0  0  0  0  0  0  0
   -0.9044   -0.3822    1.0232 N   0  0  0  0  0  0  0  0  0  0  0  0
   -0.3269    0.6978    1.7606 C   0  0  0  0  0  0  0  0  0  0  0  0
   -0.5903    0.8464    2.9576 O   0  0  0  0  0  0  0  0  0  0  0  0
    0.5988    1.6769    1.1435 C   0  0  0  0  0  0  0  0  0  0  0  0
    1.2656    1.5895   -0.0850 C   0  0  0  0  0  0  0  0  0  0  0  0
    1.1894    0.5015   -0.9774 N   0  0  0  0  0  0  0  0  0  0  0  0
    0.0191   -0.2900   -1.2509 C   0  0  0  0  0  0  0  0  0  0  0  0
    0.0021   -0.9135   -2.3671 O   0  0  0  0  0  0  0  0  0  0  0  0
    2.3854    0.1205   -1.6841 C   0  0  0  0  0  0  0  0  0  0  0  0
    3.0683   -0.8663   -0.7393 C   0  0  0  0  0  0  0  0  0  0  0  0
    3.9442   -0.4117    0.2259 C   0  0  0  0  0  0  0  0  0  0  0  0
    4.5331   -1.3691    1.0487 C   0  0  0  0  0  0  0  0  0  0  0  0
    4.2395   -2.7256    0.8909 C   0  0  0  0  0  0  0  0  0  0  0  0
    3.3573   -3.1606   -0.0846 C   0  0  0  0  0  0  0  0  0  0  0  0
    2.7818   -2.2029   -0.8918 C   0  0  0  0  0  0  0  0  0  0  0  0
    2.0953    2.5740   -0.5483 C   0  0  0  0  0  0  0  0  0  0  0  0
    2.2749    3.6854    0.2303 C   0  0  0  0  0  0  0  0  0  0  0  0
    1.6209    3.7765    1.4416 C   0  0  0  0  0  0  0  0  0  0  0  0
    0.7790    2.7958    1.9275 C   0  0  0  0  0  0  0  0  0  0  0  0
    3.3426    4.9329   -0.3771 Cl  0  0  0  0  0  0  0  0  0  0  0  0
   -6.2711   -1.8603    0.5856 H   0  0  0  0  0  0  0  0  0  0  0  0
   -5.6871   -2.5340   -0.8748 H   0  0  0  0  0  0  0  0  0  0  0  0
   -3.5488   -2.3562   -0.2590 H   0  0  0  0  0  0  0  0  0  0  0  0
   -4.0481   -1.7823    1.4390 H   0  0  0  0  0  0  0  0  0  0  0  0
   -4.8943   -0.4645   -1.2155 H   0  0  0  0  0  0  0  0  0  0  0  0
   -5.4285   -0.0034    0.3921 H   0  0  0  0  0  0  0  0  0  0  0  0
   -3.9761    1.6389   -0.4807 H   0  0  0  0  0  0  0  0  0  0  0  0
   -3.3242    0.9478    0.9891 H   0  0  0  0  0  0  0  0  0  0  0  0
   -2.2673    0.6867   -1.8961 H   0  0  0  0  0  0  0  0  0  0  0  0
   -1.6140    1.5509   -0.5201 H   0  0  0  0  0  0  0  0  0  0  0  0
   -1.5228   -1.5147   -0.6250 H   0  0  0  0  0  0  0  0  0  0  0  0
   -1.1360   -1.2214    1.6364 H   0  0  0  0  0  0  0  0  0  0  0  0
    3.1631    0.8548   -1.8437 H   0  0  0  0  0  0  0  0  0  0  0  0
    2.1265   -0.4350   -2.6259 H   0  0  0  0  0  0  0  0  0  0  0  0
    4.1530    0.6448    0.3256 H   0  0  0  0  0  0  0  0  0  0  0  0
    5.2297   -1.0666    1.8245 H   0  0  0  0  0  0  0  0  0  0  0  0
    4.7010   -3.4794    1.5362 H   0  0  0  0  0  0  0  0  0  0  0  0
    3.0944   -4.1774   -0.2531 H   0  0  0  0  0  0  0  0  0  0  0  0
    2.0994   -2.4770   -1.6601 H   0  0  0  0  0  0  0  0  0  0  0  0
    2.5596    2.4403   -1.5025 H   0  0  0  0  0  0  0  0  0  0  0  0
    1.7826    4.6732    2.0409 H   0  0  0  0  0  0  0  0  0  0  0  0
    0.2610    2.8371    2.8563 H   0  0  0  0  0  0  0  0  0  0  0  0
  1  2  1  0
  2  3  1  0
  3  4  1  0
  4  5  1  0
  5  6  1  0
  6  7  1  0
  7  8  1  0
  8  9  2  0
  8 10  1  0
 10 11  2  0
 11 12  1  0
 12 13  1  0
 13 14  2  0
 12 15  1  0
 15 16  1  0
 16 17  2  0
 17 18  1  0
 18 19  2  0
 19 20  1  0
 20 21  2  0
 11 22  1  0
 22 23  2  0
 23 24  1  0
 24 25  2  0
 23 26  1  0
 13  6  1  0
 21 16  1  0
 25 10  1  0
  1 27  1  0
  1 28  1  0
  2 29  1  0
  2 30  1  0
  3 31  1  0
  3 32  1  0
  4 33  1  0
  4 34  1  0
  5 35  1  0
  5 36  1  0
  6 37  1  0
  7 38  1  0
 15 39  1  0
 15 40  1  0
 17 41  1  0
 18 42  1  0
 19 43  1  0
 20 44  1  0
 21 45  1  0
 22 46  1  0
 24 47  1  0
 25 48  1  0
M  END
>  <Ligand ID>  (1) 
LIG0001263

>  <Ligand>  (1) 
CHEMBL270270

>  <SMILES>  (1) 
NCCCCC1NC(=O)c2c(N(C1=O)Cc1ccccc1)cc(cc2)Cl

>  <CID>  (1) 
24882615.0

>  <ChEMBL ID>  (1) 
nan

>  <InChiKey>  (1) 
YJDGJKULBWAHHK-UHFFFAOYSA-N

>  <InChi>  (1) 
InChI=1S/C20H22ClN3O2/c21-15-9-10-16-18(12-15)24(13-14-6-2-1-3-7-14)20(26)17(23-19(16)25)8-4-5-11-22/h1-3,6-7,9-10,12,17H,4-5,8,11,13,22H2,(H,23,25)

>  <IUPAC Name>  (1) 
3-(4-aminobutyl)-1-benzyl-8-chloro-3,4-dihydro-1,4-benzodiazepine-2,5-dione

$$$$
