
     RDKit          3D

 80 81  0  0  0  0  0  0  0  0999 V2000
    9.1007    3.6634   -1.0542 N   0  0  0  0  0  0  0  0  0  0  0  0
    8.6557    2.3603   -0.6601 C   0  0  0  0  0  0  0  0  0  0  0  0
    7.8053    2.2577    0.4307 C   0  0  0  0  0  0  0  0  0  0  0  0
    7.3657    1.0011    0.8260 C   0  0  0  0  0  0  0  0  0  0  0  0
    7.7348   -0.1568    0.1830 C   0  0  0  0  0  0  0  0  0  0  0  0
    8.5846   -0.0395   -0.9055 C   0  0  0  0  0  0  0  0  0  0  0  0
    9.0407    1.2120   -1.3219 C   0  0  0  0  0  0  0  0  0  0  0  0
    7.2906   -1.5110    0.5586 C   0  0  2  0  0  0  0  0  0  0  0  0
    6.6635   -1.6479    1.8945 C   0  0  0  0  0  0  0  0  0  0  0  0
    5.5119   -0.9675    2.2424 N   0  0  0  0  0  0  0  0  0  0  0  0
    4.2286   -1.1805    1.7513 C   0  0  0  0  0  0  0  0  0  0  0  0
    4.0338   -0.7681    0.3346 C   0  0  0  0  0  0  0  0  0  0  0  0
    2.5857   -0.9945   -0.0834 C   0  0  0  0  0  0  0  0  0  0  0  0
    2.1693   -2.1754   -0.6180 C   0  0  0  0  0  0  0  0  0  0  0  0
    0.8465   -2.3030   -0.9925 C   0  0  0  0  0  0  0  0  0  0  0  0
   -0.0033   -1.2320   -0.8117 C   0  0  0  0  0  0  0  0  0  0  0  0
    0.4504   -0.0305   -0.2594 C   0  0  0  0  0  0  0  0  0  0  0  0
    1.7646    0.1041    0.1154 C   0  0  0  0  0  0  0  0  0  0  0  0
   -1.4105   -1.2662   -1.1873 C   0  0  0  0  0  0  0  0  0  0  0  0
   -1.8068   -2.0234   -2.2636 C   0  0  0  0  0  0  0  0  0  0  0  0
   -3.1227   -2.0670   -2.6521 C   0  0  0  0  0  0  0  0  0  0  0  0
   -4.1293   -1.3593   -1.9934 C   0  0  0  0  0  0  0  0  0  0  0  0
   -3.7352   -0.6040   -0.9207 C   0  0  0  0  0  0  0  0  0  0  0  0
   -2.3935   -0.5604   -0.5254 C   0  0  0  0  0  0  0  0  0  0  0  0
   -4.6796    0.1105   -0.2382 O   0  0  0  0  0  0  0  0  0  0  0  0
   -4.5816    0.9215    0.8735 C   0  0  0  0  0  0  0  0  0  0  0  0
   -5.5643    0.5650    1.9672 C   0  0  0  0  0  0  0  0  0  0  0  0
   -6.8276    1.3898    1.8604 C   0  0  0  0  0  0  0  0  0  0  0  0
   -6.5168    2.8727    2.0705 C   0  0  0  0  0  0  0  0  0  0  0  0
   -5.0363    3.1236    1.8365 C   0  0  0  0  0  0  0  0  0  0  0  0
   -4.7174    2.4085    0.5180 C   0  0  0  0  0  0  0  0  0  0  0  0
   -5.4649   -1.5031   -2.5119 C   0  0  0  0  0  0  0  0  0  0  0  0
   -5.6704   -2.2534   -3.5327 O   0  0  0  0  0  0  0  0  0  0  0  0
   -6.6306   -0.8811   -1.9989 N   0  0  0  0  0  0  0  0  0  0  0  0
   -8.1211   -1.2406   -2.8347 S   0  0  0  0  0  0  0  0  0  0  0  0
   -8.0296   -0.8310   -4.2766 O   0  0  0  0  0  0  0  0  0  0  0  0
   -8.3493   -2.7008   -2.6541 O   0  0  0  0  0  0  0  0  0  0  0  0
   -9.4123   -0.3558   -1.9940 C   0  0  0  0  0  0  0  0  0  0  0  0
    8.4810   -2.3154    0.5762 O   0  0  0  0  0  0  0  0  0  0  0  0
    0.6849    0.0000    0.0000 Cl  0  0  0  0  0  0  0  0  0  0  0  0
    0.6926    0.0000    0.0000 Cl  0  0  0  0  0  0  0  0  0  0  0  0
   10.1112    3.9346   -0.9517 H   0  0  0  0  0  0  0  0  0  0  0  0
    8.3923    4.3470   -1.4523 H   0  0  0  0  0  0  0  0  0  0  0  0
    7.4893    3.1460    0.9683 H   0  0  0  0  0  0  0  0  0  0  0  0
    6.7165    0.9647    1.6729 H   0  0  0  0  0  0  0  0  0  0  0  0
    8.9316   -0.8757   -1.4775 H   0  0  0  0  0  0  0  0  0  0  0  0
    9.7013    1.3288   -2.1636 H   0  0  0  0  0  0  0  0  0  0  0  0
    6.7271   -1.9836   -0.2921 H   0  0  0  0  0  0  0  0  0  0  0  0
    6.5171   -2.7770    2.0502 H   0  0  0  0  0  0  0  0  0  0  0  0
    7.4957   -1.4287    2.6528 H   0  0  0  0  0  0  0  0  0  0  0  0
    5.4948   -0.7418    3.2636 H   0  0  0  0  0  0  0  0  0  0  0  0
    3.4264   -0.6601    2.3840 H   0  0  0  0  0  0  0  0  0  0  0  0
    3.8864   -2.2724    1.8686 H   0  0  0  0  0  0  0  0  0  0  0  0
    4.5972   -1.4394   -0.3333 H   0  0  0  0  0  0  0  0  0  0  0  0
    4.3272    0.2813    0.2290 H   0  0  0  0  0  0  0  0  0  0  0  0
    2.8794   -2.9809   -0.7379 H   0  0  0  0  0  0  0  0  0  0  0  0
    0.4704   -3.2220   -1.4216 H   0  0  0  0  0  0  0  0  0  0  0  0
   -0.2115    0.8109   -0.1140 H   0  0  0  0  0  0  0  0  0  0  0  0
    2.1304    1.0304    0.5423 H   0  0  0  0  0  0  0  0  0  0  0  0
   -1.0649   -2.5891   -2.8066 H   0  0  0  0  0  0  0  0  0  0  0  0
   -3.3433   -2.6968   -3.5181 H   0  0  0  0  0  0  0  0  0  0  0  0
   -2.0592    0.0298    0.3170 H   0  0  0  0  0  0  0  0  0  0  0  0
   -3.5617    0.8466    1.3087 H   0  0  0  0  0  0  0  0  0  0  0  0
   -5.8719   -0.5027    1.8849 H   0  0  0  0  0  0  0  0  0  0  0  0
   -5.1512    0.6815    2.9837 H   0  0  0  0  0  0  0  0  0  0  0  0
   -7.3734    1.2387    0.9237 H   0  0  0  0  0  0  0  0  0  0  0  0
   -7.4740    1.0763    2.7207 H   0  0  0  0  0  0  0  0  0  0  0  0
   -7.0944    3.4538    1.3380 H   0  0  0  0  0  0  0  0  0  0  0  0
   -6.7824    3.1831    3.0888 H   0  0  0  0  0  0  0  0  0  0  0  0
   -4.4904    2.5722    2.6280 H   0  0  0  0  0  0  0  0  0  0  0  0
   -4.7893    4.1881    1.8151 H   0  0  0  0  0  0  0  0  0  0  0  0
   -5.5120    2.5734   -0.2367 H   0  0  0  0  0  0  0  0  0  0  0  0
   -3.7467    2.7931    0.1810 H   0  0  0  0  0  0  0  0  0  0  0  0
   -6.5972   -0.2662   -1.1981 H   0  0  0  0  0  0  0  0  0  0  0  0
   -9.5999    0.6021   -2.5606 H   0  0  0  0  0  0  0  0  0  0  0  0
   -9.1089   -0.1475   -0.9484 H   0  0  0  0  0  0  0  0  0  0  0  0
  -10.3348   -0.9672   -1.9639 H   0  0  0  0  0  0  0  0  0  0  0  0
    8.7623   -2.5528   -0.3290 H   0  0  0  0  0  0  0  0  0  0  0  0
   -0.6849    0.0000    0.0000 H   0  0  0  0  0  0  0  0  0  0  0  0
   -0.6926    0.0000    0.0000 H   0  0  0  0  0  0  0  0  0  0  0  0
  1  2  1  0
  2  3  2  0
  3  4  1  0
  4  5  2  0
  5  6  1  0
  6  7  2  0
  5  8  1  0
  8  9  1  0
  9 10  1  0
 10 11  1  0
 11 12  1  0
 12 13  1  0
 13 14  2  0
 14 15  1  0
 15 16  2  0
 16 17  1  0
 17 18  2  0
 16 19  1  0
 19 20  2  0
 20 21  1  0
 21 22  2  0
 22 23  1  0
 23 24  2  0
 23 25  1  0
 25 26  1  0
 26 27  1  0
 27 28  1  0
 28 29  1  0
 29 30  1  0
 30 31  1  0
 22 32  1  0
 32 33  2  0
 32 34  1  0
 34 35  1  0
 35 36  2  0
 35 37  2  0
 35 38  1  0
  8 39  1  0
  7  2  1  0
 18 13  1  0
 24 19  1  0
 31 26  1  0
  1 42  1  0
  1 43  1  0
  3 44  1  0
  4 45  1  0
  6 46  1  0
  7 47  1  0
  8 48  1  6
  9 49  1  0
  9 50  1  0
 10 51  1  0
 11 52  1  0
 11 53  1  0
 12 54  1  0
 12 55  1  0
 14 56  1  0
 15 57  1  0
 17 58  1  0
 18 59  1  0
 20 60  1  0
 21 61  1  0
 24 62  1  0
 26 63  1  0
 27 64  1  0
 27 65  1  0
 28 66  1  0
 28 67  1  0
 29 68  1  0
 29 69  1  0
 30 70  1  0
 30 71  1  0
 31 72  1  0
 31 73  1  0
 34 74  1  0
 38 75  1  0
 38 76  1  0
 38 77  1  0
 39 78  1  0
 40 79  1  0
 41 80  1  0
M  END
>  <Ligand ID>  (1) 
LIG0004924

>  <Ligand>  (1) 
CHEMBL452134

>  <SMILES>  (1) 
Nc1ccc(cc1)[C@H](CNCCc1ccc(cc1)c1ccc(c(c1)OC1CCCCC1)C(=O)NS(=O)(=O)C)O.Cl.Cl

>  <CID>  (1) 
42639655.0

>  <ChEMBL ID>  (1) 
nan

>  <InChiKey>  (1) 
GJXOXZRRXUCBCQ-ZXVJYWQYSA-N

>  <InChi>  (1) 
InChI=1S/C30H37N3O5S.2ClH/c1-39(36,37)33-30(35)27-16-13-24(19-29(27)38-26-5-3-2-4-6-26)22-9-7-21(8-10-22)17-18-32-20-28(34)23-11-14-25(31)15-12-23;;/h7-16,19,26,28,32,34H,2-6,17-18,20,31H2,1H3,(H,33,35);2*1H/t28-;;/m0../s1

>  <IUPAC Name>  (1) 
4-[4-[2-[[(2R)-2-(4-aminophenyl)-2-hydroxyethyl]amino]ethyl]phenyl]-2-cyclohexyloxy-N-methylsulfonylbenzamide;dihydrochloride

$$$$
