
     RDKit          3D

 59 62  0  0  0  0  0  0  0  0999 V2000
    0.3295    7.8384   -0.9587 C   0  0  0  0  0  0  0  0  0  0  0  0
   -0.4939    7.0394   -0.1337 O   0  0  0  0  0  0  0  0  0  0  0  0
   -0.3088    5.6660   -0.1707 C   0  0  0  0  0  0  0  0  0  0  0  0
    0.6288    5.0413   -0.9634 C   0  0  0  0  0  0  0  0  0  0  0  0
    0.7665    3.6522   -0.9557 C   0  0  0  0  0  0  0  0  0  0  0  0
   -0.0169    2.8612   -0.1682 C   0  0  0  0  0  0  0  0  0  0  0  0
   -0.9598    3.4987    0.6281 C   0  0  0  0  0  0  0  0  0  0  0  0
   -1.1047    4.8713    0.6287 C   0  0  0  0  0  0  0  0  0  0  0  0
    0.0685    1.4095   -0.1065 C   0  0  0  0  0  0  0  0  0  0  0  0
    0.9668    0.6846   -0.8519 C   0  0  0  0  0  0  0  0  0  0  0  0
    1.0278   -0.7102   -0.7714 C   0  0  0  0  0  0  0  0  0  0  0  0
    2.0254   -1.4167   -1.6007 C   0  0  0  0  0  0  0  0  0  0  0  0
    3.2008   -1.8471   -0.8147 C   0  0  0  0  0  0  0  0  0  0  0  0
    4.2417   -0.9257   -0.6838 C   0  0  0  0  0  0  0  0  0  0  0  0
    5.3683   -1.2615    0.0330 C   0  0  0  0  0  0  0  0  0  0  0  0
    5.4811   -2.5100    0.6285 C   0  0  0  0  0  0  0  0  0  0  0  0
    4.4599   -3.4395    0.5111 C   0  0  0  0  0  0  0  0  0  0  0  0
    3.3344   -3.0771   -0.2163 C   0  0  0  0  0  0  0  0  0  0  0  0
    6.6075   -2.8589    1.3494 O   0  0  0  0  0  0  0  0  0  0  0  0
    7.6949   -1.9477    1.5081 C   0  0  0  0  0  0  0  0  0  0  0  0
    0.1502   -1.3103    0.0839 C   0  0  0  0  0  0  0  0  0  0  0  0
    0.1584   -2.5586    0.1969 O   0  0  0  0  0  0  0  0  0  0  0  0
   -0.7237   -0.6124    0.8096 N   0  0  0  0  0  0  0  0  0  0  0  0
   -0.7498    0.6963    0.7060 N   0  0  0  0  0  0  0  0  0  0  0  0
   -1.6358   -1.2989    1.7023 C   0  0  0  0  0  0  0  0  0  0  0  0
   -2.8798   -1.6254    0.9601 C   0  0  0  0  0  0  0  0  0  0  0  0
   -2.9899   -1.2943   -0.2710 O   0  0  0  0  0  0  0  0  0  0  0  0
   -3.9880   -2.2967    1.5343 N   0  0  0  0  0  0  0  0  0  0  0  0
   -5.1476   -2.5644    0.7244 C   0  0  0  0  0  0  0  0  0  0  0  0
   -5.2132   -3.7719    0.0193 C   0  0  0  0  0  0  0  0  0  0  0  0
   -6.3110   -4.0546   -0.7665 C   0  0  0  0  0  0  0  0  0  0  0  0
   -7.3698   -3.1496   -0.8735 C   0  0  0  0  0  0  0  0  0  0  0  0
   -7.2725   -1.9553   -0.1573 C   0  0  0  0  0  0  0  0  0  0  0  0
   -6.1802   -1.6629    0.6307 C   0  0  0  0  0  0  0  0  0  0  0  0
   -8.8840   -3.5468   -1.9616 Br  0  0  0  0  0  0  0  0  0  0  0  0
    0.3869    7.4244   -1.9954 H   0  0  0  0  0  0  0  0  0  0  0  0
   -0.0680    8.8735   -1.0564 H   0  0  0  0  0  0  0  0  0  0  0  0
    1.3720    7.8197   -0.5645 H   0  0  0  0  0  0  0  0  0  0  0  0
    1.2675    5.6292   -1.5999 H   0  0  0  0  0  0  0  0  0  0  0  0
    1.5133    3.1997   -1.5920 H   0  0  0  0  0  0  0  0  0  0  0  0
   -1.6259    2.9310    1.2879 H   0  0  0  0  0  0  0  0  0  0  0  0
   -1.8578    5.3312    1.2691 H   0  0  0  0  0  0  0  0  0  0  0  0
    1.6546    1.1775   -1.5245 H   0  0  0  0  0  0  0  0  0  0  0  0
    2.3396   -0.8028   -2.4800 H   0  0  0  0  0  0  0  0  0  0  0  0
    1.5395   -2.3187   -2.0757 H   0  0  0  0  0  0  0  0  0  0  0  0
    4.1853    0.0656   -1.1411 H   0  0  0  0  0  0  0  0  0  0  0  0
    6.1702   -0.5127    0.1168 H   0  0  0  0  0  0  0  0  0  0  0  0
    4.5099   -4.4188    0.9582 H   0  0  0  0  0  0  0  0  0  0  0  0
    2.5369   -3.7994   -0.3112 H   0  0  0  0  0  0  0  0  0  0  0  0
    8.0164   -1.5867    0.4934 H   0  0  0  0  0  0  0  0  0  0  0  0
    8.5155   -2.4551    2.0358 H   0  0  0  0  0  0  0  0  0  0  0  0
    7.2971   -1.0609    2.0449 H   0  0  0  0  0  0  0  0  0  0  0  0
   -1.2064   -2.2756    2.0404 H   0  0  0  0  0  0  0  0  0  0  0  0
   -1.9125   -0.7099    2.5956 H   0  0  0  0  0  0  0  0  0  0  0  0
   -3.9432   -2.5884    2.5454 H   0  0  0  0  0  0  0  0  0  0  0  0
   -4.3833   -4.4878    0.1007 H   0  0  0  0  0  0  0  0  0  0  0  0
   -6.3456   -5.0040   -1.3111 H   0  0  0  0  0  0  0  0  0  0  0  0
   -8.0784   -1.2638   -0.2375 H   0  0  0  0  0  0  0  0  0  0  0  0
   -6.1651   -0.7301    1.1554 H   0  0  0  0  0  0  0  0  0  0  0  0
  1  2  1  0
  2  3  1  0
  3  4  2  0
  4  5  1  0
  5  6  2  0
  6  7  1  0
  7  8  2  0
  6  9  1  0
  9 10  1  0
 10 11  2  0
 11 12  1  0
 12 13  1  0
 13 14  2  0
 14 15  1  0
 15 16  2  0
 16 17  1  0
 17 18  2  0
 16 19  1  0
 19 20  1  0
 11 21  1  0
 21 22  2  0
 21 23  1  0
 23 24  1  0
 23 25  1  0
 25 26  1  0
 26 27  2  0
 26 28  1  0
 28 29  1  0
 29 30  2  0
 30 31  1  0
 31 32  2  0
 32 33  1  0
 33 34  2  0
 32 35  1  0
  8  3  1  0
 24  9  2  0
 34 29  1  0
 18 13  1  0
  1 36  1  0
  1 37  1  0
  1 38  1  0
  4 39  1  0
  5 40  1  0
  7 41  1  0
  8 42  1  0
 10 43  1  0
 12 44  1  0
 12 45  1  0
 14 46  1  0
 15 47  1  0
 17 48  1  0
 18 49  1  0
 20 50  1  0
 20 51  1  0
 20 52  1  0
 25 53  1  0
 25 54  1  0
 28 55  1  0
 30 56  1  0
 31 57  1  0
 33 58  1  0
 34 59  1  0
M  END
>  <Ligand ID>  (1) 
LIG0004810

>  <Ligand>  (1) 
CHEMBL2391264

>  <SMILES>  (1) 
COc1ccc(cc1)c1cc(Cc2ccc(cc2)OC)c(=O)n(n1)CC(=O)Nc1ccc(cc1)Br

>  <CID>  (1) 
71698624.0

>  <ChEMBL ID>  (1) 
nan

>  <InChiKey>  (1) 
ZWGMKUNSHWUUJH-UHFFFAOYSA-N

>  <InChi>  (1) 
InChI=1S/C27H24BrN3O4/c1-34-23-11-3-18(4-12-23)15-20-16-25(19-5-13-24(35-2)14-6-19)30-31(27(20)33)17-26(32)29-22-9-7-21(28)8-10-22/h3-14,16H,15,17H2,1-2H3,(H,29,32)

>  <IUPAC Name>  (1) 
N-(4-bromophenyl)-2-[3-(4-methoxyphenyl)-5-[(4-methoxyphenyl)methyl]-6-oxopyridazin-1-yl]acetamide

$$$$
