
     RDKit          3D

 29 31  0  0  0  0  0  0  0  0999 V2000
    0.6334    2.5222    0.6831 O   0  0  0  0  0  0  0  0  0  0  0  0
    0.2635    1.3974    0.2915 C   0  0  0  0  0  0  0  0  0  0  0  0
   -1.0613    0.9494    0.1619 N   0  0  0  0  0  0  0  0  0  0  0  0
   -2.3706    1.5463    0.4034 C   0  0  0  0  0  0  0  0  0  0  0  0
   -3.3709    0.4127    0.3377 C   0  0  0  0  0  0  0  0  0  0  0  0
   -2.9094   -0.6293    1.2328 N   0  0  0  0  0  0  0  0  0  0  0  0
   -1.7735   -1.3355    0.6733 C   0  0  0  0  0  0  0  0  0  0  0  0
   -1.0771   -0.4288   -0.3278 C   0  0  0  0  0  0  0  0  0  0  0  0
    0.3641   -0.7601   -0.4777 C   0  0  0  0  0  0  0  0  0  0  0  0
    1.1461    0.3225   -0.1103 C   0  0  0  0  0  0  0  0  0  0  0  0
    2.5171    0.2573   -0.1641 C   0  0  0  0  0  0  0  0  0  0  0  0
    3.0826   -0.9250   -0.5970 C   0  0  0  0  0  0  0  0  0  0  0  0
    2.2999   -2.0130   -0.9663 C   0  0  0  0  0  0  0  0  0  0  0  0
    0.9259   -1.9433   -0.9109 C   0  0  0  0  0  0  0  0  0  0  0  0
    3.3433    1.4386    0.2375 C   0  0  0  0  0  0  0  0  0  0  0  0
    3.1022    1.7884    1.5564 F   0  0  0  0  0  0  0  0  0  0  0  0
    4.6675    1.0517    0.1429 F   0  0  0  0  0  0  0  0  0  0  0  0
    3.1701    2.4926   -0.6353 F   0  0  0  0  0  0  0  0  0  0  0  0
   -2.4414    1.9665    1.4351 H   0  0  0  0  0  0  0  0  0  0  0  0
   -2.6357    2.3276   -0.3354 H   0  0  0  0  0  0  0  0  0  0  0  0
   -4.3857    0.7346    0.6056 H   0  0  0  0  0  0  0  0  0  0  0  0
   -3.4224    0.0921   -0.7181 H   0  0  0  0  0  0  0  0  0  0  0  0
   -2.6988   -0.2098    2.1456 H   0  0  0  0  0  0  0  0  0  0  0  0
   -2.0965   -2.2427    0.1561 H   0  0  0  0  0  0  0  0  0  0  0  0
   -1.0415   -1.6478    1.4625 H   0  0  0  0  0  0  0  0  0  0  0  0
   -1.5654   -0.5107   -1.3254 H   0  0  0  0  0  0  0  0  0  0  0  0
    4.1609   -0.9566   -0.6323 H   0  0  0  0  0  0  0  0  0  0  0  0
    2.8319   -2.8953   -1.2918 H   0  0  0  0  0  0  0  0  0  0  0  0
    0.3418   -2.8020   -1.2031 H   0  0  0  0  0  0  0  0  0  0  0  0
  1  2  2  0
  2  3  1  0
  3  4  1  0
  4  5  1  0
  5  6  1  0
  6  7  1  0
  7  8  1  0
  8  9  1  0
  9 10  2  0
 10 11  1  0
 11 12  2  0
 12 13  1  0
 13 14  2  0
 11 15  1  0
 15 16  1  0
 15 17  1  0
 15 18  1  0
 10  2  1  0
  8  3  1  0
 14  9  1  0
  4 19  1  0
  4 20  1  0
  5 21  1  0
  5 22  1  0
  6 23  1  0
  7 24  1  0
  7 25  1  0
  8 26  1  0
 12 27  1  0
 13 28  1  0
 14 29  1  0
M  END
>  <Ligand ID>  (1) 
LIG0003221

>  <Ligand>  (1) 
CHEMBL220274

>  <SMILES>  (1) 
O=C1N2CCNCC2c2c1c(ccc2)C(F)(F)F

>  <CID>  (1) 
11414184.0

>  <ChEMBL ID>  (1) 
nan

>  <InChiKey>  (1) 
MYJCTHLPBPJBRB-UHFFFAOYSA-N

>  <InChi>  (1) 
InChI=1S/C12H11F3N2O/c13-12(14,15)8-3-1-2-7-9-6-16-4-5-17(9)11(18)10(7)8/h1-3,9,16H,4-6H2

>  <IUPAC Name>  (1) 
7-(trifluoromethyl)-2,3,4,10b-tetrahydro-1H-pyrazino[1,2-b]isoindol-6-one

$$$$
