
     RDKit          3D

 59 61  0  0  0  0  0  0  0  0999 V2000
    3.0150   -1.1884   -0.7404 O   0  0  0  0  0  0  0  0  0  0  0  0
    2.3147   -0.0124   -0.4606 C   0  0  2  0  0  0  0  0  0  0  0  0
    3.1442    0.9886    0.2412 C   0  0  0  0  0  0  0  0  0  0  0  0
    2.7712    1.6802    1.3595 C   0  0  0  0  0  0  0  0  0  0  0  0
    3.5895    2.6307    1.9729 C   0  0  0  0  0  0  0  0  0  0  0  0
    4.8231    2.8839    1.4315 C   0  0  0  0  0  0  0  0  0  0  0  0
    5.2506    2.2007    0.2871 C   0  0  0  0  0  0  0  0  0  0  0  0
    4.4090    1.2715   -0.2839 C   0  0  0  0  0  0  0  0  0  0  0  0
    6.5413    2.5009   -0.2549 N   0  0  0  0  0  0  0  0  0  0  0  0
    7.3085    1.4959   -1.4317 S   0  0  0  0  0  0  0  0  0  0  0  0
    6.4273    1.4125   -2.6429 O   0  0  0  0  0  0  0  0  0  0  0  0
    8.6456    2.1069   -1.7526 O   0  0  0  0  0  0  0  0  0  0  0  0
    7.5847   -0.1276   -0.7488 C   0  0  0  0  0  0  0  0  0  0  0  0
    5.6308    3.8328    2.0501 O   0  0  0  0  0  0  0  0  0  0  0  0
    1.0904   -0.2996    0.3391 C   0  0  0  0  0  0  0  0  0  0  0  0
    0.2078   -1.1830   -0.3624 N   0  0  0  0  0  0  0  0  0  0  0  0
   -0.4060   -0.6241   -1.5470 C   0  0  0  0  0  0  0  0  0  0  0  0
   -1.3281   -1.7056   -2.0756 C   0  0  0  0  0  0  0  0  0  0  0  0
   -2.7652   -1.5156   -1.7763 C   0  0  0  0  0  0  0  0  0  0  0  0
   -3.0819   -0.8235   -0.5481 N   0  0  0  0  0  0  0  0  0  0  0  0
   -2.0387   -0.0075    0.0848 C   0  0  0  0  0  0  0  0  0  0  0  0
   -1.2525    0.5508   -1.1015 C   0  0  0  0  0  0  0  0  0  0  0  0
   -4.3874   -0.9457    0.0048 C   0  0  0  0  0  0  0  0  0  0  0  0
   -5.3527   -1.6236   -0.6815 C   0  0  0  0  0  0  0  0  0  0  0  0
   -6.6432   -1.7604   -0.1675 C   0  0  0  0  0  0  0  0  0  0  0  0
   -6.9339   -1.1960    1.0557 C   0  0  0  0  0  0  0  0  0  0  0  0
   -5.9841   -0.5026    1.7803 C   0  0  0  0  0  0  0  0  0  0  0  0
   -4.7083   -0.3896    1.2303 C   0  0  0  0  0  0  0  0  0  0  0  0
   -8.3012   -1.3379    1.5970 C   0  0  0  0  0  0  0  0  0  0  0  0
   -9.1531   -1.9665    0.9109 O   0  0  0  0  0  0  0  0  0  0  0  0
   -8.6208   -0.7709    2.8608 N   0  0  0  0  0  0  0  0  0  0  0  0
    3.1836   -1.6259    0.1359 H   0  0  0  0  0  0  0  0  0  0  0  0
    1.9996    0.4109   -1.4637 H   0  0  0  0  0  0  0  0  0  0  0  0
    1.8226    1.5164    1.8199 H   0  0  0  0  0  0  0  0  0  0  0  0
    3.2260    3.1480    2.8676 H   0  0  0  0  0  0  0  0  0  0  0  0
    4.7455    0.7435   -1.1709 H   0  0  0  0  0  0  0  0  0  0  0  0
    7.0229    3.3822    0.0981 H   0  0  0  0  0  0  0  0  0  0  0  0
    6.6647   -0.7036   -0.8154 H   0  0  0  0  0  0  0  0  0  0  0  0
    7.9658   -0.0143    0.3034 H   0  0  0  0  0  0  0  0  0  0  0  0
    8.4459   -0.5672   -1.3306 H   0  0  0  0  0  0  0  0  0  0  0  0
    5.6815    4.7438    1.5926 H   0  0  0  0  0  0  0  0  0  0  0  0
    0.5530    0.6081    0.6279 H   0  0  0  0  0  0  0  0  0  0  0  0
    1.3900   -0.8473    1.2798 H   0  0  0  0  0  0  0  0  0  0  0  0
    0.5681   -2.1441   -0.5081 H   0  0  0  0  0  0  0  0  0  0  0  0
    0.3162   -0.3313   -2.3310 H   0  0  0  0  0  0  0  0  0  0  0  0
   -1.2246   -1.7177   -3.2019 H   0  0  0  0  0  0  0  0  0  0  0  0
   -0.9639   -2.7112   -1.7745 H   0  0  0  0  0  0  0  0  0  0  0  0
   -3.2131   -2.5503   -1.6691 H   0  0  0  0  0  0  0  0  0  0  0  0
   -3.3161   -1.0793   -2.6405 H   0  0  0  0  0  0  0  0  0  0  0  0
   -1.4070   -0.7380    0.6338 H   0  0  0  0  0  0  0  0  0  0  0  0
   -2.4065    0.7643    0.7451 H   0  0  0  0  0  0  0  0  0  0  0  0
   -1.9621    0.8376   -1.9152 H   0  0  0  0  0  0  0  0  0  0  0  0
   -0.6340    1.3731   -0.7734 H   0  0  0  0  0  0  0  0  0  0  0  0
   -5.1984   -2.0960   -1.6556 H   0  0  0  0  0  0  0  0  0  0  0  0
   -7.4104   -2.2951   -0.7043 H   0  0  0  0  0  0  0  0  0  0  0  0
   -6.2039   -0.0565    2.7402 H   0  0  0  0  0  0  0  0  0  0  0  0
   -3.9953    0.1606    1.8265 H   0  0  0  0  0  0  0  0  0  0  0  0
   -8.2394    0.1755    3.0747 H   0  0  0  0  0  0  0  0  0  0  0  0
   -9.2072   -1.2381    3.5787 H   0  0  0  0  0  0  0  0  0  0  0  0
  1  2  1  0
  2  3  1  0
  3  4  2  0
  4  5  1  0
  5  6  2  0
  6  7  1  0
  7  8  2  0
  7  9  1  0
  9 10  1  0
 10 11  2  0
 10 12  2  0
 10 13  1  0
  6 14  1  0
  2 15  1  0
 15 16  1  0
 16 17  1  0
 17 18  1  0
 18 19  1  0
 19 20  1  0
 20 21  1  0
 21 22  1  0
 20 23  1  0
 23 24  2  0
 24 25  1  0
 25 26  2  0
 26 27  1  0
 27 28  2  0
 26 29  1  0
 29 30  2  0
 29 31  1  0
  8  3  1  0
 22 17  1  0
 28 23  1  0
  1 32  1  0
  2 33  1  6
  4 34  1  0
  5 35  1  0
  8 36  1  0
  9 37  1  0
 13 38  1  0
 13 39  1  0
 13 40  1  0
 14 41  1  0
 15 42  1  0
 15 43  1  0
 16 44  1  0
 17 45  1  0
 18 46  1  0
 18 47  1  0
 19 48  1  0
 19 49  1  0
 21 50  1  0
 21 51  1  0
 22 52  1  0
 22 53  1  0
 24 54  1  0
 25 55  1  0
 27 56  1  0
 28 57  1  0
 31 58  1  0
 31 59  1  0
M  END
>  <Ligand ID>  (1) 
LIG0004932

>  <Ligand>  (1) 
CHEMBL286574

>  <SMILES>  (1) 
O[C@H](c1ccc(c(c1)NS(=O)(=O)C)O)CNC1CCN(CC1)c1ccc(cc1)C(=O)N

>  <CID>  (1) 
10575455.0

>  <ChEMBL ID>  (1) 
nan

>  <InChiKey>  (1) 
SKQVEPBWSASIEZ-FQEVSTJZSA-N

>  <InChi>  (1) 
InChI=1S/C21H28N4O5S/c1-31(29,30)24-18-12-15(4-7-19(18)26)20(27)13-23-16-8-10-25(11-9-16)17-5-2-14(3-6-17)21(22)28/h2-7,12,16,20,23-24,26-27H,8-11,13H2,1H3,(H2,22,28)/t20-/m0/s1

>  <IUPAC Name>  (1) 
4-[4-[[(2R)-2-hydroxy-2-[4-hydroxy-3-(methanesulfonamido)phenyl]ethyl]amino]piperidin-1-yl]benzamide

$$$$
