
     RDKit          3D

 67 72  0  0  0  0  0  0  0  0999 V2000
    2.8410    1.7339    3.1206 O   0  0  0  0  0  0  0  0  0  0  0  0
    2.4196    0.9644    2.0207 C   0  0  0  0  0  0  0  0  0  0  0  0
    1.2362    1.6425    1.3818 C   0  0  0  0  0  0  0  0  0  0  0  0
    0.7158    0.9403    0.2392 N   0  0  0  0  0  0  0  0  0  0  0  0
   -0.4158    1.6740   -0.2801 C   0  0  0  0  0  0  0  0  0  0  0  0
   -1.7209    0.9217   -0.0194 C   0  0  0  0  0  0  0  0  0  0  0  0
   -1.7555   -0.3734   -0.7651 C   0  0  0  0  0  0  0  0  0  0  0  0
   -0.3529   -0.9846   -0.6983 C   0  0  0  0  0  0  0  0  0  0  0  0
    0.3224   -0.4043    0.5223 C   0  0  0  0  0  0  0  0  0  0  0  0
   -2.7024   -1.3984   -0.2535 C   0  0  0  0  0  0  0  0  0  0  0  0
   -4.0916   -1.0317   -0.2448 N   0  0  0  0  0  0  0  0  0  0  0  0
   -4.7790   -0.4348    0.8376 C   0  0  0  0  0  0  0  0  0  0  0  0
   -4.2080   -0.1873    1.9042 O   0  0  0  0  0  0  0  0  0  0  0  0
   -6.2125   -0.0770    0.7543 C   0  0  0  0  0  0  0  0  0  0  0  0
   -6.8365    0.5068    1.8459 C   0  0  0  0  0  0  0  0  0  0  0  0
   -8.1781    0.8598    1.8168 C   0  0  0  0  0  0  0  0  0  0  0  0
   -8.8738    0.6061    0.6507 C   0  0  0  0  0  0  0  0  0  0  0  0
   -8.2657    0.0200   -0.4586 C   0  0  0  0  0  0  0  0  0  0  0  0
   -6.9170   -0.3259   -0.4054 C   0  0  0  0  0  0  0  0  0  0  0  0
   -6.2888   -0.9072   -1.4875 C   0  0  0  0  0  0  0  0  0  0  0  0
   -4.8558   -1.2788   -1.4417 C   0  0  0  0  0  0  0  0  0  0  0  0
   -4.3263   -1.8103   -2.4632 O   0  0  0  0  0  0  0  0  0  0  0  0
   -7.0396   -1.1431   -2.6450 C   0  0  0  0  0  0  0  0  0  0  0  0
   -8.3843   -0.7950   -2.6892 C   0  0  0  0  0  0  0  0  0  0  0  0
   -9.0225   -0.2084   -1.6006 C   0  0  0  0  0  0  0  0  0  0  0  0
    3.5910    0.8462    1.0994 C   0  0  0  0  0  0  0  0  0  0  0  0
    4.6665    0.2112    1.7642 O   0  0  0  0  0  0  0  0  0  0  0  0
    5.8731   -0.0164    1.1211 C   0  0  0  0  0  0  0  0  0  0  0  0
    6.8696   -0.6422    1.8429 C   0  0  0  0  0  0  0  0  0  0  0  0
    8.1141   -0.9292    1.3300 C   0  0  0  0  0  0  0  0  0  0  0  0
    8.3715   -0.5622    0.0033 C   0  0  0  0  0  0  0  0  0  0  0  0
    7.3786    0.0635   -0.7220 C   0  0  0  0  0  0  0  0  0  0  0  0
    6.1248    0.3457   -0.1844 C   0  0  0  0  0  0  0  0  0  0  0  0
    7.6656    0.4155   -2.0392 C   0  0  0  0  0  0  0  0  0  0  0  0
    8.9191    0.1267   -2.5592 C   0  0  0  0  0  0  0  0  0  0  0  0
    9.8888   -0.5053   -1.7909 C   0  0  0  0  0  0  0  0  0  0  0  0
    9.6144   -0.8576   -0.4865 C   0  0  0  0  0  0  0  0  0  0  0  0
    2.9079    1.2098    3.9526 H   0  0  0  0  0  0  0  0  0  0  0  0
    2.1881   -0.0261    2.4154 H   0  0  0  0  0  0  0  0  0  0  0  0
    1.5302    2.6523    1.0089 H   0  0  0  0  0  0  0  0  0  0  0  0
    0.4279    1.8272    2.1064 H   0  0  0  0  0  0  0  0  0  0  0  0
   -0.5137    2.6533    0.2142 H   0  0  0  0  0  0  0  0  0  0  0  0
   -0.3333    1.8385   -1.3692 H   0  0  0  0  0  0  0  0  0  0  0  0
   -2.5238    1.5773   -0.4077 H   0  0  0  0  0  0  0  0  0  0  0  0
   -1.8839    0.8244    1.0550 H   0  0  0  0  0  0  0  0  0  0  0  0
   -2.0147   -0.1950   -1.8540 H   0  0  0  0  0  0  0  0  0  0  0  0
   -0.3960   -2.0954   -0.6448 H   0  0  0  0  0  0  0  0  0  0  0  0
    0.2005   -0.6147   -1.6000 H   0  0  0  0  0  0  0  0  0  0  0  0
    1.1832   -1.0614    0.7879 H   0  0  0  0  0  0  0  0  0  0  0  0
   -0.3534   -0.4318    1.4205 H   0  0  0  0  0  0  0  0  0  0  0  0
   -2.3538   -1.6956    0.7687 H   0  0  0  0  0  0  0  0  0  0  0  0
   -2.5222   -2.3297   -0.8657 H   0  0  0  0  0  0  0  0  0  0  0  0
   -6.2599    0.6971    2.7576 H   0  0  0  0  0  0  0  0  0  0  0  0
   -8.6029    1.3066    2.6896 H   0  0  0  0  0  0  0  0  0  0  0  0
   -9.9360    0.8884    0.6350 H   0  0  0  0  0  0  0  0  0  0  0  0
   -6.5861   -1.6012   -3.5284 H   0  0  0  0  0  0  0  0  0  0  0  0
   -8.9734   -0.9767   -3.5885 H   0  0  0  0  0  0  0  0  0  0  0  0
  -10.0567    0.0673   -1.6146 H   0  0  0  0  0  0  0  0  0  0  0  0
    3.3432    0.2124    0.2106 H   0  0  0  0  0  0  0  0  0  0  0  0
    3.9517    1.8154    0.6959 H   0  0  0  0  0  0  0  0  0  0  0  0
    6.6837   -0.9332    2.8744 H   0  0  0  0  0  0  0  0  0  0  0  0
    8.8447   -1.4186    1.9463 H   0  0  0  0  0  0  0  0  0  0  0  0
    5.3504    0.8354   -0.7543 H   0  0  0  0  0  0  0  0  0  0  0  0
    6.8912    0.9012   -2.5987 H   0  0  0  0  0  0  0  0  0  0  0  0
    9.1590    0.3935   -3.5824 H   0  0  0  0  0  0  0  0  0  0  0  0
   10.8640   -0.7196   -2.2248 H   0  0  0  0  0  0  0  0  0  0  0  0
   10.3986   -1.3472    0.0732 H   0  0  0  0  0  0  0  0  0  0  0  0
  1  2  1  0
  2  3  1  0
  3  4  1  0
  4  5  1  0
  5  6  1  0
  6  7  1  0
  7  8  1  0
  8  9  1  0
  7 10  1  0
 10 11  1  0
 11 12  1  0
 12 13  2  0
 12 14  1  0
 14 15  2  0
 15 16  1  0
 16 17  2  0
 17 18  1  0
 18 19  2  0
 19 20  1  0
 20 21  1  0
 21 22  2  0
 20 23  2  0
 23 24  1  0
 24 25  2  0
  2 26  1  0
 26 27  1  0
 27 28  1  0
 28 29  2  0
 29 30  1  0
 30 31  2  0
 31 32  1  0
 32 33  2  0
 32 34  1  0
 34 35  2  0
 35 36  1  0
 36 37  2  0
  9  4  1  0
 21 11  1  0
 33 28  1  0
 19 14  1  0
 37 31  1  0
 25 18  1  0
  1 38  1  0
  2 39  1  0
  3 40  1  0
  3 41  1  0
  5 42  1  0
  5 43  1  0
  6 44  1  0
  6 45  1  0
  7 46  1  0
  8 47  1  0
  8 48  1  0
  9 49  1  0
  9 50  1  0
 10 51  1  0
 10 52  1  0
 15 53  1  0
 16 54  1  0
 17 55  1  0
 23 56  1  0
 24 57  1  0
 25 58  1  0
 26 59  1  0
 26 60  1  0
 29 61  1  0
 30 62  1  0
 33 63  1  0
 34 64  1  0
 35 65  1  0
 36 66  1  0
 37 67  1  0
M  END
>  <Ligand ID>  (1) 
LIG0003137

>  <Ligand>  (1) 
MLS000572681

>  <SMILES>  (1) 
OC(CN1CCC(CC1)Cn1c(=O)c2cccc3c2c(c1=O)ccc3)COc1ccc2c(c1)cccc2

>  <CID>  (1) 
2891887.0

>  <ChEMBL ID>  (1) 
nan

>  <InChiKey>  (1) 
TXPRPLRWADQUKQ-UHFFFAOYSA-N

>  <InChi>  (1) 
InChI=1S/C31H30N2O4/c34-25(20-37-26-12-11-22-5-1-2-6-24(22)17-26)19-32-15-13-21(14-16-32)18-33-30(35)27-9-3-7-23-8-4-10-28(29(23)27)31(33)36/h1-12,17,21,25,34H,13-16,18-20H2

>  <IUPAC Name>  (1) 
2-[[1-(2-hydroxy-3-naphthalen-2-yloxypropyl)piperidin-4-yl]methyl]benzo[de]isoquinoline-1,3-dione

$$$$
