
     RDKit          3D

 51 55  0  0  0  0  0  0  0  0999 V2000
    2.4884   -1.9947   -1.3363 O   0  0  0  0  0  0  0  0  0  0  0  0
    3.1614   -1.2379   -0.5891 C   0  0  0  0  0  0  0  0  0  0  0  0
    4.4711   -1.4497   -0.3463 N   0  0  0  0  0  0  0  0  0  0  0  0
    4.9059   -0.4903    0.4747 C   0  0  0  0  0  0  0  0  0  0  0  0
    3.8144    0.3152    0.7246 C   0  0  0  0  0  0  0  0  0  0  0  0
    2.7296   -0.1444    0.0669 N   0  0  0  0  0  0  0  0  0  0  0  0
    1.3741    0.4151    0.0603 C   0  0  2  0  0  0  0  0  0  0  0  0
    0.4764   -0.5375    0.7902 C   0  0  0  0  0  0  0  0  0  0  0  0
   -0.9429   -0.1131    0.6549 C   0  0  0  0  0  0  0  0  0  0  0  0
   -1.3505    0.3854   -0.6090 N   0  0  0  0  0  0  0  0  0  0  0  0
   -0.4199    0.2232   -1.6815 C   0  0  1  0  0  0  0  0  0  0  0  0
    0.9589    0.6678   -1.3626 C   0  0  0  0  0  0  0  0  0  0  0  0
   -0.5109   -1.1684   -2.2764 C   0  0  0  0  0  0  0  0  0  0  0  0
   -1.9300   -1.3187   -2.8028 C   0  0  0  0  0  0  0  0  0  0  0  0
   -2.9063   -1.1991   -1.6545 C   0  0  0  0  0  0  0  0  0  0  0  0
   -2.6970    0.1209   -0.9812 C   0  0  1  0  0  0  0  0  0  0  0  0
   -3.6273    0.3948    0.1175 C   0  0  0  0  0  0  0  0  0  0  0  0
   -3.4728    1.5670    0.8267 C   0  0  0  0  0  0  0  0  0  0  0  0
   -4.3510    1.8241    1.8640 C   0  0  0  0  0  0  0  0  0  0  0  0
   -5.3432    0.9110    2.1542 C   0  0  0  0  0  0  0  0  0  0  0  0
   -5.4883   -0.2689    1.4301 C   0  0  0  0  0  0  0  0  0  0  0  0
   -4.6107   -0.5239    0.3950 C   0  0  0  0  0  0  0  0  0  0  0  0
    3.9564    1.4089    1.5538 C   0  0  0  0  0  0  0  0  0  0  0  0
    5.1880    1.7025    2.1364 C   0  0  0  0  0  0  0  0  0  0  0  0
    6.2782    0.8905    1.8815 C   0  0  0  0  0  0  0  0  0  0  0  0
    6.1271   -0.1999    1.0519 C   0  0  0  0  0  0  0  0  0  0  0  0
    5.0510   -2.2188   -0.7244 H   0  0  0  0  0  0  0  0  0  0  0  0
    1.4162    1.3595    0.6482 H   0  0  0  0  0  0  0  0  0  0  0  0
    0.7602   -0.4343    1.8795 H   0  0  0  0  0  0  0  0  0  0  0  0
    0.6767   -1.6077    0.5729 H   0  0  0  0  0  0  0  0  0  0  0  0
   -1.1555    0.6581    1.4246 H   0  0  0  0  0  0  0  0  0  0  0  0
   -1.5614   -0.9965    0.9921 H   0  0  0  0  0  0  0  0  0  0  0  0
   -0.7764    0.8977   -2.5104 H   0  0  0  0  0  0  0  0  0  0  0  0
    1.6959    0.2014   -2.0596 H   0  0  0  0  0  0  0  0  0  0  0  0
    1.0751    1.7696   -1.5539 H   0  0  0  0  0  0  0  0  0  0  0  0
   -0.3730   -1.9788   -1.5519 H   0  0  0  0  0  0  0  0  0  0  0  0
    0.2150   -1.2879   -3.0992 H   0  0  0  0  0  0  0  0  0  0  0  0
   -2.0970   -0.4864   -3.5383 H   0  0  0  0  0  0  0  0  0  0  0  0
   -2.0371   -2.2498   -3.3603 H   0  0  0  0  0  0  0  0  0  0  0  0
   -2.7563   -2.0684   -1.0038 H   0  0  0  0  0  0  0  0  0  0  0  0
   -3.9225   -1.1608   -2.1034 H   0  0  0  0  0  0  0  0  0  0  0  0
   -2.9461    0.8887   -1.7737 H   0  0  0  0  0  0  0  0  0  0  0  0
   -2.7056    2.3008    0.6218 H   0  0  0  0  0  0  0  0  0  0  0  0
   -4.3066    2.7143    2.4731 H   0  0  0  0  0  0  0  0  0  0  0  0
   -6.0487    1.0826    2.9618 H   0  0  0  0  0  0  0  0  0  0  0  0
   -6.2623   -0.9946    1.6468 H   0  0  0  0  0  0  0  0  0  0  0  0
   -4.7252   -1.4575   -0.1781 H   0  0  0  0  0  0  0  0  0  0  0  0
    3.0924    2.0455    1.7509 H   0  0  0  0  0  0  0  0  0  0  0  0
    5.2360    2.5653    2.7712 H   0  0  0  0  0  0  0  0  0  0  0  0
    7.2313    1.1260    2.3382 H   0  0  0  0  0  0  0  0  0  0  0  0
    6.9450   -0.8479    0.8327 H   0  0  0  0  0  0  0  0  0  0  0  0
  1  2  2  0
  2  3  1  0
  3  4  1  0
  4  5  2  0
  5  6  1  0
  6  7  1  0
  7  8  1  0
  8  9  1  0
  9 10  1  0
 10 11  1  0
 11 12  1  0
 11 13  1  0
 13 14  1  0
 14 15  1  0
 15 16  1  0
 16 17  1  0
 17 18  2  0
 18 19  1  0
 19 20  2  0
 20 21  1  0
 21 22  2  0
  5 23  1  0
 23 24  2  0
 24 25  1  0
 25 26  2  0
  6  2  1  0
 12  7  1  0
 22 17  1  0
 26  4  1  0
 16 10  1  0
  3 27  1  0
  7 28  1  1
  8 29  1  0
  8 30  1  0
  9 31  1  0
  9 32  1  0
 11 33  1  6
 12 34  1  0
 12 35  1  0
 13 36  1  0
 13 37  1  0
 14 38  1  0
 14 39  1  0
 15 40  1  0
 15 41  1  0
 16 42  1  6
 18 43  1  0
 19 44  1  0
 20 45  1  0
 21 46  1  0
 22 47  1  0
 23 48  1  0
 24 49  1  0
 25 50  1  0
 26 51  1  0
M  END
>  <Ligand ID>  (1) 
LIG0002894

>  <Ligand>  (1) 
SR-14136

>  <SMILES>  (1) 
O=c1[nH]c2c(n1[C@@H]1CCN3[C@@H](C1)CCC[C@H]3c1ccccc1)cccc2

>  <CID>  (1) 
10066285.0

>  <ChEMBL ID>  (1) 
nan

>  <InChiKey>  (1) 
KMUYAJQKQQUKSQ-GGPKGHCWSA-N

>  <InChi>  (1) 
InChI=1S/C22H25N3O/c26-22-23-19-10-4-5-11-21(19)25(22)18-13-14-24-17(15-18)9-6-12-20(24)16-7-2-1-3-8-16/h1-5,7-8,10-11,17-18,20H,6,9,12-15H2,(H,23,26)/t17-,18-,20+/m1/s1

>  <IUPAC Name>  (1) 
3-[(2R,6S,9aR)-6-phenyl-2,3,4,6,7,8,9,9a-octahydro-1H-quinolizin-2-yl]-1H-benzimidazol-2-one

$$$$
