
     RDKit          3D

 67 71  0  0  0  0  0  0  0  0999 V2000
   -0.8181   -3.9921    1.4210 C   0  0  0  0  0  0  0  0  0  0  0  0
   -0.0293   -2.7819    0.9709 C   0  0  2  0  0  0  0  0  0  0  0  0
   -0.7115   -1.4999    1.3469 C   0  0  0  0  0  0  0  0  0  0  0  0
   -2.0593   -1.3030    0.7866 C   0  0  0  0  0  0  0  0  0  0  0  0
   -2.2940   -0.5778   -0.3815 C   0  0  0  0  0  0  0  0  0  0  0  0
   -3.6270   -0.6061   -0.6629 N   0  0  0  0  0  0  0  0  0  0  0  0
   -4.2740   -1.3218    0.2778 C   0  0  0  0  0  0  0  0  0  0  0  0
   -3.2963   -1.7498    1.1724 C   0  0  0  0  0  0  0  0  0  0  0  0
   -3.7138   -2.4921    2.2328 C   0  0  0  0  0  0  0  0  0  0  0  0
   -5.0246   -2.8183    2.4328 C   0  0  0  0  0  0  0  0  0  0  0  0
   -5.9939   -2.3854    1.5291 C   0  0  0  0  0  0  0  0  0  0  0  0
   -5.6095   -1.6264    0.4367 C   0  0  0  0  0  0  0  0  0  0  0  0
   -6.5964   -1.2127   -0.4436 O   0  0  0  0  0  0  0  0  0  0  0  0
   -7.4503    0.2283   -0.3004 S   0  0  0  0  0  0  0  0  0  0  0  0
   -7.5854    0.6517    1.1310 O   0  0  0  0  0  0  0  0  0  0  0  0
   -8.8372    0.1170   -0.8997 O   0  0  0  0  0  0  0  0  0  0  0  0
   -6.6351    1.5614   -1.1168 C   0  0  0  0  0  0  0  0  0  0  0  0
   -6.1627    2.7550   -0.5956 C   0  0  0  0  0  0  0  0  0  0  0  0
   -5.5785    3.6119   -1.4390 C   0  0  0  0  0  0  0  0  0  0  0  0
   -5.4631    3.3039   -2.7517 C   0  0  0  0  0  0  0  0  0  0  0  0
   -6.2529    1.6174   -2.8781 S   0  0  0  0  0  0  0  0  0  0  0  0
    0.2915   -2.8494   -0.4319 N   0  0  0  0  0  0  0  0  0  0  0  0
    1.0849   -1.8019   -0.9570 C   0  0  0  0  0  0  0  0  0  0  0  0
    2.5070   -1.7377   -0.5275 C   0  0  1  0  0  0  0  0  0  0  0  0
    3.2398   -0.6064   -1.1865 C   0  0  0  0  0  0  0  0  0  0  0  0
    3.9840   -0.7880   -2.3410 C   0  0  0  0  0  0  0  0  0  0  0  0
    4.6627    0.2471   -2.9544 C   0  0  0  0  0  0  0  0  0  0  0  0
    4.6021    1.5111   -2.4036 C   0  0  0  0  0  0  0  0  0  0  0  0
    3.8755    1.7381   -1.2583 C   0  0  0  0  0  0  0  0  0  0  0  0
    3.1998    0.6783   -0.6582 C   0  0  0  0  0  0  0  0  0  0  0  0
    3.7630    2.9953   -0.6212 N   0  0  0  0  0  0  0  0  0  0  0  0
    5.1668    4.0082   -0.4070 S   0  0  0  0  0  0  0  0  0  0  0  0
    4.7295    5.3490    0.1350 O   0  0  0  0  0  0  0  0  0  0  0  0
    5.7542    4.2779   -1.7539 O   0  0  0  0  0  0  0  0  0  0  0  0
    6.3037    3.2006    0.5589 C   0  0  0  0  0  0  0  0  0  0  0  0
    7.6289    2.8089    0.3222 C   0  0  0  0  0  0  0  0  0  0  0  0
    8.3111    2.1847    1.2506 C   0  0  0  0  0  0  0  0  0  0  0  0
    7.6990    1.9093    2.4934 C   0  0  0  0  0  0  0  0  0  0  0  0
    5.9897    2.6270    2.2712 S   0  0  0  0  0  0  0  0  0  0  0  0
    2.7158   -1.5873    0.8268 O   0  0  0  0  0  0  0  0  0  0  0  0
   -0.9824   -3.9510    2.5149 H   0  0  0  0  0  0  0  0  0  0  0  0
   -1.7730   -4.0883    0.9070 H   0  0  0  0  0  0  0  0  0  0  0  0
   -0.2008   -4.9307    1.2884 H   0  0  0  0  0  0  0  0  0  0  0  0
    0.9154   -2.8099    1.5763 H   0  0  0  0  0  0  0  0  0  0  0  0
   -0.7242   -1.4546    2.4759 H   0  0  0  0  0  0  0  0  0  0  0  0
   -0.0508   -0.6196    1.0832 H   0  0  0  0  0  0  0  0  0  0  0  0
   -1.6074   -0.0535   -1.0153 H   0  0  0  0  0  0  0  0  0  0  0  0
   -4.1087   -0.1513   -1.4777 H   0  0  0  0  0  0  0  0  0  0  0  0
   -2.9921   -2.8289    2.9425 H   0  0  0  0  0  0  0  0  0  0  0  0
   -5.3215   -3.4102    3.2870 H   0  0  0  0  0  0  0  0  0  0  0  0
   -7.0114   -2.6672    1.7290 H   0  0  0  0  0  0  0  0  0  0  0  0
   -6.2853    2.9524    0.4873 H   0  0  0  0  0  0  0  0  0  0  0  0
   -5.1750    4.5980   -1.0751 H   0  0  0  0  0  0  0  0  0  0  0  0
   -5.0601    3.7928   -3.5770 H   0  0  0  0  0  0  0  0  0  0  0  0
   -0.5944   -2.8911   -0.9822 H   0  0  0  0  0  0  0  0  0  0  0  0
    1.1037   -1.9441   -2.0781 H   0  0  0  0  0  0  0  0  0  0  0  0
    0.6393   -0.7875   -0.8264 H   0  0  0  0  0  0  0  0  0  0  0  0
    3.0052   -2.6591   -0.9318 H   0  0  0  0  0  0  0  0  0  0  0  0
    4.0453   -1.7716   -2.7892 H   0  0  0  0  0  0  0  0  0  0  0  0
    5.2393    0.1260   -3.8415 H   0  0  0  0  0  0  0  0  0  0  0  0
    5.1252    2.3300   -2.8705 H   0  0  0  0  0  0  0  0  0  0  0  0
    2.6221    0.8400    0.2455 H   0  0  0  0  0  0  0  0  0  0  0  0
    2.8260    3.3426   -0.2639 H   0  0  0  0  0  0  0  0  0  0  0  0
    8.0432    3.0627   -0.6855 H   0  0  0  0  0  0  0  0  0  0  0  0
    9.3619    1.8431    1.1391 H   0  0  0  0  0  0  0  0  0  0  0  0
    8.0187    1.4444    3.3556 H   0  0  0  0  0  0  0  0  0  0  0  0
    3.4456   -0.9571    1.0457 H   0  0  0  0  0  0  0  0  0  0  0  0
  1  2  1  0
  2  3  1  0
  3  4  1  0
  4  5  2  0
  5  6  1  0
  6  7  1  0
  7  8  2  0
  8  9  1  0
  9 10  2  0
 10 11  1  0
 11 12  2  0
 12 13  1  0
 13 14  1  0
 14 15  2  0
 14 16  2  0
 14 17  1  0
 17 18  2  0
 18 19  1  0
 19 20  2  0
 20 21  1  0
  2 22  1  0
 22 23  1  0
 23 24  1  0
 24 25  1  0
 25 26  2  0
 26 27  1  0
 27 28  2  0
 28 29  1  0
 29 30  2  0
 29 31  1  0
 31 32  1  0
 32 33  2  0
 32 34  2  0
 32 35  1  0
 35 36  2  0
 36 37  1  0
 37 38  2  0
 38 39  1  0
 24 40  1  0
  8  4  1  0
 21 17  1  0
 30 25  1  0
 39 35  1  0
 12  7  1  0
  1 41  1  0
  1 42  1  0
  1 43  1  0
  2 44  1  1
  3 45  1  0
  3 46  1  0
  5 47  1  0
  6 48  1  0
  9 49  1  0
 10 50  1  0
 11 51  1  0
 18 52  1  0
 19 53  1  0
 20 54  1  0
 22 55  1  0
 23 56  1  0
 23 57  1  0
 24 58  1  6
 26 59  1  0
 27 60  1  0
 28 61  1  0
 30 62  1  0
 31 63  1  0
 36 64  1  0
 37 65  1  0
 38 66  1  0
 40 67  1  0
M  END
>  <Ligand ID>  (1) 
LIG0002228

>  <Ligand>  (1) 
CHEMBL186271

>  <SMILES>  (1) 
C[C@H](Cc1c[nH]c2c1cccc2OS(=O)(=O)c1cccs1)NC[C@@H](c1cccc(c1)NS(=O)(=O)c1cccs1)O

>  <CID>  (1) 
44396736.0

>  <ChEMBL ID>  (1) 
nan

>  <InChiKey>  (1) 
MHZUEPXBTVAPLN-JPYJTQIMSA-N

>  <InChi>  (1) 
InChI=1S/C27H27N3O6S4/c1-18(28-17-23(31)19-6-2-7-21(15-19)30-39(32,33)25-10-4-12-37-25)14-20-16-29-27-22(20)8-3-9-24(27)36-40(34,35)26-11-5-13-38-26/h2-13,15-16,18,23,28-31H,14,17H2,1H3/t18-,23+/m1/s1

>  <IUPAC Name>  (1) 
[3-[(2R)-2-[[(2R)-2-hydroxy-2-[3-(thiophen-2-ylsulfonylamino)phenyl]ethyl]amino]propyl]-1H-indol-7-yl] thiophene-2-sulfonate

$$$$
