
     RDKit          3D

 48 50  0  0  0  0  0  0  0  0999 V2000
    7.2514    0.0281    1.5859 C   0  0  0  0  0  0  0  0  0  0  0  0
    6.1160    0.7044    1.0856 O   0  0  0  0  0  0  0  0  0  0  0  0
    5.1546   -0.0061    0.4234 C   0  0  0  0  0  0  0  0  0  0  0  0
    5.2045   -1.3687    0.1992 C   0  0  0  0  0  0  0  0  0  0  0  0
    4.1765   -1.9867   -0.4822 C   0  0  0  0  0  0  0  0  0  0  0  0
    3.0945   -1.2770   -0.9477 C   0  0  0  0  0  0  0  0  0  0  0  0
    3.0250    0.0823   -0.7345 C   0  0  0  0  0  0  0  0  0  0  0  0
    4.0534    0.7005   -0.0537 C   0  0  0  0  0  0  0  0  0  0  0  0
    3.7468    2.0288    0.0094 N   0  0  0  0  0  0  0  0  0  0  0  0
    2.5762    2.2398   -0.6050 C   0  0  0  0  0  0  0  0  0  0  0  0
    2.0843    1.0215   -1.0922 C   0  0  0  0  0  0  0  0  0  0  0  0
    0.8050    0.9135   -1.7950 C   0  0  0  0  0  0  0  0  0  0  0  0
   -0.3698    0.4744   -0.9335 C   0  0  1  0  0  0  0  0  0  0  0  0
   -1.5372    0.4011   -1.7442 N   0  0  0  0  0  0  0  0  0  0  0  0
   -2.7048    0.0149   -1.0581 C   0  0  0  0  0  0  0  0  0  0  0  0
   -3.2512    0.9912   -0.0539 C   0  0  1  0  0  0  0  0  0  0  0  0
   -4.5280    0.4229    0.4788 C   0  0  0  0  0  0  0  0  0  0  0  0
   -4.5628   -0.5632    1.4396 C   0  0  0  0  0  0  0  0  0  0  0  0
   -5.7650   -1.0288    1.8849 C   0  0  0  0  0  0  0  0  0  0  0  0
   -6.9361   -0.5275    1.3877 C   0  0  0  0  0  0  0  0  0  0  0  0
   -6.9447    0.4587    0.4262 C   0  0  0  0  0  0  0  0  0  0  0  0
   -5.7302    0.9219   -0.0164 C   0  0  0  0  0  0  0  0  0  0  0  0
   -8.3998    1.1237   -0.2323 Cl  0  0  0  0  0  0  0  0  0  0  0  0
   -2.3893    1.2832    0.9881 O   0  0  0  0  0  0  0  0  0  0  0  0
   -0.1347   -0.7757   -0.1762 C   0  0  0  0  0  0  0  0  0  0  0  0
    7.9570   -0.2799    0.8071 H   0  0  0  0  0  0  0  0  0  0  0  0
    6.8631   -0.8611    2.1184 H   0  0  0  0  0  0  0  0  0  0  0  0
    7.7594    0.7510    2.2572 H   0  0  0  0  0  0  0  0  0  0  0  0
    6.0624   -1.9122    0.5712 H   0  0  0  0  0  0  0  0  0  0  0  0
    4.2416   -3.0666   -0.6465 H   0  0  0  0  0  0  0  0  0  0  0  0
    2.2853   -1.7333   -1.4776 H   0  0  0  0  0  0  0  0  0  0  0  0
    4.3106    2.7852    0.4561 H   0  0  0  0  0  0  0  0  0  0  0  0
    2.0890    3.2095   -0.7057 H   0  0  0  0  0  0  0  0  0  0  0  0
    0.9000    0.1702   -2.6297 H   0  0  0  0  0  0  0  0  0  0  0  0
    0.5649    1.8683   -2.3031 H   0  0  0  0  0  0  0  0  0  0  0  0
   -0.4496    1.3011   -0.1646 H   0  0  0  0  0  0  0  0  0  0  0  0
   -1.3979   -0.0580   -2.6639 H   0  0  0  0  0  0  0  0  0  0  0  0
   -2.5787   -0.9689   -0.5574 H   0  0  0  0  0  0  0  0  0  0  0  0
   -3.5003   -0.1754   -1.8662 H   0  0  0  0  0  0  0  0  0  0  0  0
   -3.4798    1.9734   -0.5498 H   0  0  0  0  0  0  0  0  0  0  0  0
   -3.6452   -0.9678    1.8400 H   0  0  0  0  0  0  0  0  0  0  0  0
   -5.8346   -1.8026    2.6383 H   0  0  0  0  0  0  0  0  0  0  0  0
   -7.8954   -0.8945    1.7380 H   0  0  0  0  0  0  0  0  0  0  0  0
   -5.6873    1.7103   -0.7841 H   0  0  0  0  0  0  0  0  0  0  0  0
   -2.3509    0.5916    1.6789 H   0  0  0  0  0  0  0  0  0  0  0  0
   -0.0232   -1.6910   -0.7880 H   0  0  0  0  0  0  0  0  0  0  0  0
   -0.9744   -1.0110    0.5424 H   0  0  0  0  0  0  0  0  0  0  0  0
    0.7491   -0.7224    0.5053 H   0  0  0  0  0  0  0  0  0  0  0  0
  1  2  1  0
  2  3  1  0
  3  4  2  0
  4  5  1  0
  5  6  2  0
  6  7  1  0
  7  8  2  0
  8  9  1  0
  9 10  1  0
 10 11  2  0
 11 12  1  0
 12 13  1  0
 13 14  1  0
 14 15  1  0
 15 16  1  0
 16 17  1  0
 17 18  2  0
 18 19  1  0
 19 20  2  0
 20 21  1  0
 21 22  2  0
 21 23  1  0
 16 24  1  0
 13 25  1  0
  8  3  1  0
 22 17  1  0
 11  7  1  0
  1 26  1  0
  1 27  1  0
  1 28  1  0
  4 29  1  0
  5 30  1  0
  6 31  1  0
  9 32  1  0
 10 33  1  0
 12 34  1  0
 12 35  1  0
 13 36  1  1
 14 37  1  0
 15 38  1  0
 15 39  1  0
 16 40  1  6
 18 41  1  0
 19 42  1  0
 20 43  1  0
 22 44  1  0
 24 45  1  0
 25 46  1  0
 25 47  1  0
 25 48  1  0
M  END
>  <Ligand ID>  (1) 
LIG0005213

>  <Ligand>  (1) 
CHEMBL286818

>  <SMILES>  (1) 
COc1cccc2c1[nH]cc2C[C@@H](NC[C@@H](c1cccc(c1)Cl)O)C

>  <CID>  (1) 
11152564.0

>  <ChEMBL ID>  (1) 
nan

>  <InChiKey>  (1) 
YJSBONOKYYPFLW-UGSOOPFHSA-N

>  <InChi>  (1) 
InChI=1S/C20H23ClN2O2/c1-13(22-12-18(24)14-5-3-6-16(21)10-14)9-15-11-23-20-17(15)7-4-8-19(20)25-2/h3-8,10-11,13,18,22-24H,9,12H2,1-2H3/t13-,18-/m0/s1

>  <IUPAC Name>  (1) 
(1R)-1-(3-chlorophenyl)-2-[[(2S)-1-(7-methoxy-1H-indol-3-yl)propan-2-yl]amino]ethanol

$$$$
