
     RDKit          3D

 66 69  0  0  0  0  0  0  0  0999 V2000
   -1.7975   -1.2847   -2.9289 C   0  0  0  0  0  0  0  0  0  0  0  0
   -1.4159   -0.8530   -1.4854 C   0  0  2  0  0  0  0  0  0  0  0  0
   -2.0623    0.4918   -1.2759 C   0  0  0  0  0  0  0  0  0  0  0  0
   -3.5685    0.3603   -1.4378 C   0  0  0  0  0  0  0  0  0  0  0  0
   -4.3436    0.7528   -2.4921 C   0  0  0  0  0  0  0  0  0  0  0  0
   -5.6178    0.4212   -2.1596 N   0  0  0  0  0  0  0  0  0  0  0  0
   -5.6562   -0.1546   -0.9528 C   0  0  0  0  0  0  0  0  0  0  0  0
   -4.3705   -0.2058   -0.4731 C   0  0  0  0  0  0  0  0  0  0  0  0
   -4.0928   -0.7567    0.7722 C   0  0  0  0  0  0  0  0  0  0  0  0
   -5.0910   -1.2739    1.5761 C   0  0  0  0  0  0  0  0  0  0  0  0
   -6.3886   -1.2266    1.1002 C   0  0  0  0  0  0  0  0  0  0  0  0
   -6.6485   -0.6718   -0.1473 C   0  0  0  0  0  0  0  0  0  0  0  0
   -7.9733   -0.6607   -0.5542 O   0  0  0  0  0  0  0  0  0  0  0  0
   -8.9624    0.6687   -0.1783 S   0  0  0  0  0  0  0  0  0  0  0  0
   -9.7545    0.3445    1.0717 O   0  0  0  0  0  0  0  0  0  0  0  0
   -8.1246    1.8704    0.0503 O   0  0  0  0  0  0  0  0  0  0  0  0
  -10.0595    0.9817   -1.5412 C   0  0  0  0  0  0  0  0  0  0  0  0
   -0.0314   -0.8550   -1.4337 N   0  0  0  0  0  0  0  0  0  0  0  0
    0.7423   -0.7513   -0.2857 C   0  0  0  0  0  0  0  0  0  0  0  0
    0.7623    0.5712    0.4286 C   0  0  1  0  0  0  0  0  0  0  0  0
    1.8943    0.4323    1.4477 C   0  0  0  0  0  0  0  0  0  0  0  0
    1.5611    0.3905    2.8047 C   0  0  0  0  0  0  0  0  0  0  0  0
    2.5258    0.2587    3.7804 C   0  0  0  0  0  0  0  0  0  0  0  0
    3.8323    0.1695    3.3570 C   0  0  0  0  0  0  0  0  0  0  0  0
    4.1850    0.2094    2.0046 C   0  0  0  0  0  0  0  0  0  0  0  0
    3.2057    0.3427    1.0300 C   0  0  0  0  0  0  0  0  0  0  0  0
    5.5503    0.0983    1.6660 N   0  0  0  0  0  0  0  0  0  0  0  0
    6.0416    0.1392    0.2892 C   0  0  0  0  0  0  0  0  0  0  0  0
    7.5175   -0.0645    0.2883 C   0  0  0  0  0  0  0  0  0  0  0  0
    8.3478    1.0267    0.3993 C   0  0  0  0  0  0  0  0  0  0  0  0
    9.7048    0.7849    0.3957 C   0  0  0  0  0  0  0  0  0  0  0  0
   10.2313   -0.4871    0.2868 C   0  0  0  0  0  0  0  0  0  0  0  0
    9.3927   -1.5516    0.1781 C   0  0  0  0  0  0  0  0  0  0  0  0
    8.0294   -1.3394    0.1789 C   0  0  0  0  0  0  0  0  0  0  0  0
    1.2295    1.5403   -0.4488 O   0  0  0  0  0  0  0  0  0  0  0  0
   -0.8987   -1.4949   -3.5366 H   0  0  0  0  0  0  0  0  0  0  0  0
   -2.3448   -0.4790   -3.4413 H   0  0  0  0  0  0  0  0  0  0  0  0
   -2.3729   -2.2411   -2.8893 H   0  0  0  0  0  0  0  0  0  0  0  0
   -1.9246   -1.5530   -0.7838 H   0  0  0  0  0  0  0  0  0  0  0  0
   -1.6913    1.2794   -1.9617 H   0  0  0  0  0  0  0  0  0  0  0  0
   -1.9509    0.8565   -0.2449 H   0  0  0  0  0  0  0  0  0  0  0  0
   -4.0198    1.2281   -3.4020 H   0  0  0  0  0  0  0  0  0  0  0  0
   -6.4743    0.5836   -2.7508 H   0  0  0  0  0  0  0  0  0  0  0  0
   -3.0863   -0.8067    1.1735 H   0  0  0  0  0  0  0  0  0  0  0  0
   -4.8944   -1.7061    2.5481 H   0  0  0  0  0  0  0  0  0  0  0  0
   -7.1751   -1.6333    1.7332 H   0  0  0  0  0  0  0  0  0  0  0  0
   -9.5778    1.6423   -2.2692 H   0  0  0  0  0  0  0  0  0  0  0  0
  -10.9639    1.4707   -1.1317 H   0  0  0  0  0  0  0  0  0  0  0  0
  -10.3503   -0.0146   -1.9806 H   0  0  0  0  0  0  0  0  0  0  0  0
    0.4763   -0.8648   -2.3451 H   0  0  0  0  0  0  0  0  0  0  0  0
    1.8147   -1.0130   -0.5947 H   0  0  0  0  0  0  0  0  0  0  0  0
    0.5166   -1.5878    0.4401 H   0  0  0  0  0  0  0  0  0  0  0  0
   -0.1231    0.8331    0.9926 H   0  0  0  0  0  0  0  0  0  0  0  0
    0.5322    0.4649    3.0623 H   0  0  0  0  0  0  0  0  0  0  0  0
    2.2533    0.2288    4.8176 H   0  0  0  0  0  0  0  0  0  0  0  0
    4.5858    0.0671    4.1227 H   0  0  0  0  0  0  0  0  0  0  0  0
    3.4574    0.3753   -0.0217 H   0  0  0  0  0  0  0  0  0  0  0  0
    6.2644   -0.0208    2.4372 H   0  0  0  0  0  0  0  0  0  0  0  0
    5.8276    1.1473   -0.1591 H   0  0  0  0  0  0  0  0  0  0  0  0
    5.5594   -0.6008   -0.3449 H   0  0  0  0  0  0  0  0  0  0  0  0
    7.9937    2.0345    0.4852 H   0  0  0  0  0  0  0  0  0  0  0  0
   10.3711    1.6377    0.4833 H   0  0  0  0  0  0  0  0  0  0  0  0
   11.2987   -0.6102    0.2909 H   0  0  0  0  0  0  0  0  0  0  0  0
    9.8184   -2.5438    0.0941 H   0  0  0  0  0  0  0  0  0  0  0  0
    7.3252   -2.1719    0.0934 H   0  0  0  0  0  0  0  0  0  0  0  0
    0.9585    2.4540   -0.2276 H   0  0  0  0  0  0  0  0  0  0  0  0
  1  2  1  0
  2  3  1  0
  3  4  1  0
  4  5  2  0
  5  6  1  0
  6  7  1  0
  7  8  2  0
  8  9  1  0
  9 10  2  0
 10 11  1  0
 11 12  2  0
 12 13  1  0
 13 14  1  0
 14 15  2  0
 14 16  2  0
 14 17  1  0
  2 18  1  0
 18 19  1  0
 19 20  1  0
 20 21  1  0
 21 22  2  0
 22 23  1  0
 23 24  2  0
 24 25  1  0
 25 26  2  0
 25 27  1  0
 27 28  1  0
 28 29  1  0
 29 30  2  0
 30 31  1  0
 31 32  2  0
 32 33  1  0
 33 34  2  0
 20 35  1  0
  8  4  1  0
 26 21  1  0
 34 29  1  0
 12  7  1  0
  1 36  1  0
  1 37  1  0
  1 38  1  0
  2 39  1  1
  3 40  1  0
  3 41  1  0
  5 42  1  0
  6 43  1  0
  9 44  1  0
 10 45  1  0
 11 46  1  0
 17 47  1  0
 17 48  1  0
 17 49  1  0
 18 50  1  0
 19 51  1  0
 19 52  1  0
 20 53  1  1
 22 54  1  0
 23 55  1  0
 24 56  1  0
 26 57  1  0
 27 58  1  0
 28 59  1  0
 28 60  1  0
 30 61  1  0
 31 62  1  0
 32 63  1  0
 33 64  1  0
 34 65  1  0
 35 66  1  0
M  END
>  <Ligand ID>  (1) 
LIG0005472

>  <Ligand>  (1) 
CHEMBL362293

>  <SMILES>  (1) 
C[C@H](Cc1c[nH]c2c1cccc2OS(=O)(=O)C)NC[C@@H](c1cccc(c1)NCc1ccccc1)O

>  <CID>  (1) 
44392519.0

>  <ChEMBL ID>  (1) 
nan

>  <InChiKey>  (1) 
LGHCNFZLEQZRMA-CLOONOSVSA-N

>  <InChi>  (1) 
InChI=1S/C27H31N3O4S/c1-19(14-22-17-30-27-24(22)12-7-13-26(27)34-35(2,32)33)28-18-25(31)21-10-6-11-23(15-21)29-16-20-8-4-3-5-9-20/h3-13,15,17,19,25,28-31H,14,16,18H2,1-2H3/t19-,25+/m1/s1

>  <IUPAC Name>  (1) 
[3-[(2R)-2-[[(2R)-2-[3-(benzylamino)phenyl]-2-hydroxyethyl]amino]propyl]-1H-indol-7-yl] methanesulfonate

$$$$
