
     RDKit          3D

 52 54  0  0  0  0  0  0  0  0999 V2000
   -7.9276    0.2101    0.5655 C   0  0  0  0  0  0  0  0  0  0  0  0
   -7.7973   -0.8810   -0.4514 C   0  0  0  0  0  0  0  0  0  0  0  0
   -6.6933   -1.7181   -0.1903 O   0  0  0  0  0  0  0  0  0  0  0  0
   -5.4018   -1.2416   -0.1648 C   0  0  0  0  0  0  0  0  0  0  0  0
   -4.3770   -2.1399    0.1070 C   0  0  0  0  0  0  0  0  0  0  0  0
   -3.0432   -1.7302    0.1487 C   0  0  0  0  0  0  0  0  0  0  0  0
   -2.7164   -0.4314   -0.0782 C   0  0  0  0  0  0  0  0  0  0  0  0
   -3.7270    0.4834   -0.3519 C   0  0  0  0  0  0  0  0  0  0  0  0
   -5.0396    0.0652   -0.3899 C   0  0  0  0  0  0  0  0  0  0  0  0
   -1.3585    0.1035   -0.0599 C   0  0  0  0  0  0  0  0  0  0  0  0
   -0.6723    0.0928   -1.2609 C   0  0  0  0  0  0  0  0  0  0  0  0
   -1.3066   -0.4369   -2.4585 C   0  0  0  0  0  0  0  0  0  0  0  0
   -1.8099   -0.8582   -3.4229 N   0  0  0  0  0  0  0  0  0  0  0  0
    0.6329    0.5919   -1.3240 C   0  0  0  0  0  0  0  0  0  0  0  0
    1.4399    0.5436   -2.8961 S   0  0  0  0  0  0  0  0  0  0  0  0
    3.1024    1.1977   -2.9092 C   0  0  0  0  0  0  0  0  0  0  0  0
    4.0420    0.3829   -2.1227 C   0  0  0  0  0  0  0  0  0  0  0  0
    4.6851   -0.7010   -2.7276 C   0  0  0  0  0  0  0  0  0  0  0  0
    5.5844   -1.4852   -2.0245 C   0  0  0  0  0  0  0  0  0  0  0  0
    5.8514   -1.1993   -0.7167 N   0  0  0  0  0  0  0  0  0  0  0  0
    5.2616   -0.1784   -0.1049 C   0  0  0  0  0  0  0  0  0  0  0  0
    4.3638    0.6064   -0.8032 C   0  0  0  0  0  0  0  0  0  0  0  0
    5.5381    0.1400    1.2944 C   0  0  0  0  0  0  0  0  0  0  0  0
    4.9587    1.1252    1.8615 O   0  0  0  0  0  0  0  0  0  0  0  0
    6.4511   -0.6297    2.0574 N   0  0  0  0  0  0  0  0  0  0  0  0
    6.7592   -0.3540    3.4488 C   0  0  0  0  0  0  0  0  0  0  0  0
    1.1675    1.0667   -0.1935 N   0  0  0  0  0  0  0  0  0  0  0  0
    0.5089    1.0820    0.9817 C   0  0  0  0  0  0  0  0  0  0  0  0
   -0.7805    0.6001    1.0922 C   0  0  0  0  0  0  0  0  0  0  0  0
   -1.5111    0.6026    2.3322 C   0  0  0  0  0  0  0  0  0  0  0  0
   -2.1028    0.6034    3.3305 N   0  0  0  0  0  0  0  0  0  0  0  0
    1.1434    1.6051    2.1527 N   0  0  0  0  0  0  0  0  0  0  0  0
   -7.0780    0.1816    1.2975 H   0  0  0  0  0  0  0  0  0  0  0  0
   -8.0021    1.2245    0.1498 H   0  0  0  0  0  0  0  0  0  0  0  0
   -8.8547    0.0725    1.1920 H   0  0  0  0  0  0  0  0  0  0  0  0
   -8.7418   -1.4333   -0.5033 H   0  0  0  0  0  0  0  0  0  0  0  0
   -7.6546   -0.4448   -1.4770 H   0  0  0  0  0  0  0  0  0  0  0  0
   -4.5887   -3.1951    0.2966 H   0  0  0  0  0  0  0  0  0  0  0  0
   -2.2475   -2.4362    0.3627 H   0  0  0  0  0  0  0  0  0  0  0  0
   -3.4954    1.5276   -0.5375 H   0  0  0  0  0  0  0  0  0  0  0  0
   -5.7833    0.7978   -0.6063 H   0  0  0  0  0  0  0  0  0  0  0  0
    3.0958    2.2449   -2.5294 H   0  0  0  0  0  0  0  0  0  0  0  0
    3.4590    1.1583   -3.9697 H   0  0  0  0  0  0  0  0  0  0  0  0
    4.5060   -0.9664   -3.7601 H   0  0  0  0  0  0  0  0  0  0  0  0
    6.0815   -2.3299   -2.5074 H   0  0  0  0  0  0  0  0  0  0  0  0
    3.9081    1.4278   -0.2805 H   0  0  0  0  0  0  0  0  0  0  0  0
    6.9163   -1.4252    1.5918 H   0  0  0  0  0  0  0  0  0  0  0  0
    6.0989    0.4711    3.7971 H   0  0  0  0  0  0  0  0  0  0  0  0
    6.5473   -1.2537    4.0527 H   0  0  0  0  0  0  0  0  0  0  0  0
    7.8310   -0.0876    3.5654 H   0  0  0  0  0  0  0  0  0  0  0  0
    0.9968    2.5792    2.4941 H   0  0  0  0  0  0  0  0  0  0  0  0
    1.7799    0.9170    2.6501 H   0  0  0  0  0  0  0  0  0  0  0  0
  1  2  1  0
  2  3  1  0
  3  4  1  0
  4  5  2  0
  5  6  1  0
  6  7  2  0
  7  8  1  0
  8  9  2  0
  7 10  1  0
 10 11  2  0
 11 12  1  0
 12 13  3  0
 11 14  1  0
 14 15  1  0
 15 16  1  0
 16 17  1  0
 17 18  2  0
 18 19  1  0
 19 20  2  0
 20 21  1  0
 21 22  2  0
 21 23  1  0
 23 24  2  0
 23 25  1  0
 25 26  1  0
 14 27  2  0
 27 28  1  0
 28 29  2  0
 29 30  1  0
 30 31  3  0
 28 32  1  0
  9  4  1  0
 29 10  1  0
 22 17  1  0
  1 33  1  0
  1 34  1  0
  1 35  1  0
  2 36  1  0
  2 37  1  0
  5 38  1  0
  6 39  1  0
  8 40  1  0
  9 41  1  0
 16 42  1  0
 16 43  1  0
 18 44  1  0
 19 45  1  0
 22 46  1  0
 25 47  1  0
 26 48  1  0
 26 49  1  0
 26 50  1  0
 32 51  1  0
 32 52  1  0
M  END
>  <Ligand ID>  (1) 
LIG0004481

>  <Ligand>  (1) 
SCHEMBL3346799

>  <SMILES>  (1) 
CCOc1ccc(cc1)c1c(C#N)c(SCc2ccnc(c2)C(=O)NC)nc(c1C#N)N

>  <CID>  (1) 
68606791.0

>  <ChEMBL ID>  (1) 
nan

>  <InChiKey>  (1) 
FYESXGROCPLGGI-UHFFFAOYSA-N

>  <InChi>  (1) 
InChI=1S/C23H20N6O2S/c1-3-31-16-6-4-15(5-7-16)20-17(11-24)21(26)29-23(18(20)12-25)32-13-14-8-9-28-19(10-14)22(30)27-2/h4-10H,3,13H2,1-2H3,(H2,26,29)(H,27,30)

>  <IUPAC Name>  (1) 
4-[[6-amino-3,5-dicyano-4-(4-ethoxyphenyl)pyridin-2-yl]sulfanylmethyl]-N-methylpyridine-2-carboxamide

$$$$
