
     RDKit          3D

 77 84  0  0  0  0  0  0  0  0999 V2000
   -3.1252    5.9475    1.6957 C   0  0  0  0  0  0  0  0  0  0  0  0
   -2.5679    4.6758    1.8051 O   0  0  0  0  0  0  0  0  0  0  0  0
   -2.8302    3.6084    0.9685 C   0  0  0  0  0  0  0  0  0  0  0  0
   -3.7143    3.6978   -0.1147 C   0  0  0  0  0  0  0  0  0  0  0  0
   -3.9679    2.6034   -0.9545 C   0  0  0  0  0  0  0  0  0  0  0  0
   -3.3222    1.4069   -0.6948 C   0  0  0  0  0  0  0  0  0  0  0  0
   -2.4890    1.3970    0.3678 C   0  0  0  0  0  0  0  0  0  0  0  0
   -2.1840    2.3982    1.2214 C   0  0  0  0  0  0  0  0  0  0  0  0
   -1.2704    1.8877    2.1249 O   0  0  0  0  0  0  0  0  0  0  0  0
   -0.7542    0.6426    1.7686 C   0  0  1  0  0  0  0  0  0  0  0  0
   -1.7911    0.1509    0.7702 C   0  0  1  0  0  0  0  0  0  0  0  0
   -2.7304   -0.8100    1.3622 C   0  0  0  0  0  0  0  0  0  0  0  0
   -3.3235   -1.8142    0.4590 C   0  0  0  0  0  0  0  0  0  0  0  0
   -2.7175   -2.0364   -0.8075 N   0  0  0  0  0  0  0  0  0  0  0  0
   -2.2853   -0.7755   -1.4204 C   0  0  1  0  0  0  0  0  0  0  0  0
   -3.4180    0.1883   -1.5254 C   0  0  0  0  0  0  0  0  0  0  0  0
   -1.1534   -0.2885   -0.5425 C   0  0  1  0  0  0  0  0  0  0  0  0
   -0.4211    0.8562   -1.1509 C   0  0  0  0  0  0  0  0  0  0  0  0
    0.4378    1.5837   -0.1323 C   0  0  0  0  0  0  0  0  0  0  0  0
    0.5677    0.6829    1.0718 C   0  0  1  0  0  0  0  0  0  0  0  0
    1.5899    1.1592    1.8513 O   0  0  0  0  0  0  0  0  0  0  0  0
    1.4965    2.3995    2.3647 C   0  0  0  0  0  0  0  0  0  0  0  0
    0.9385   -0.7273    0.6409 C   0  0  1  0  0  0  0  0  0  0  0  0
   -0.2049   -1.3710   -0.1681 C   0  0  0  0  0  0  0  0  0  0  0  0
    2.1495   -0.9137   -0.1573 C   0  0  0  0  0  0  0  0  0  0  0  0
    3.7146   -0.4208    0.5252 S   0  0  0  0  0  0  0  0  0  0  0  0
    3.8632    1.0912    0.6787 O   0  0  0  0  0  0  0  0  0  0  0  0
    4.9530   -0.8465   -0.7673 C   0  0  0  0  0  0  0  0  0  0  0  0
    6.3134   -0.4891   -0.3267 C   0  0  0  0  0  0  0  0  0  0  0  0
    6.9182    0.7199   -0.5448 C   0  0  0  0  0  0  0  0  0  0  0  0
    8.2103    0.9883   -0.0981 C   0  0  0  0  0  0  0  0  0  0  0  0
    8.9152    0.0264    0.5827 C   0  0  0  0  0  0  0  0  0  0  0  0
    8.3297   -1.1946    0.8138 C   0  0  0  0  0  0  0  0  0  0  0  0
    7.0413   -1.4620    0.3682 C   0  0  0  0  0  0  0  0  0  0  0  0
   -3.6145   -2.7563   -1.6707 C   0  0  0  0  0  0  0  0  0  0  0  0
   -3.8265   -4.1851   -1.2055 C   0  0  0  0  0  0  0  0  0  0  0  0
   -2.6624   -5.1138   -1.1069 C   0  0  0  0  0  0  0  0  0  0  0  0
   -3.6785   -5.2962   -2.2201 C   0  0  0  0  0  0  0  0  0  0  0  0
   -4.1733    5.8610    1.3167 H   0  0  0  0  0  0  0  0  0  0  0  0
   -2.5477    6.5435    0.9605 H   0  0  0  0  0  0  0  0  0  0  0  0
   -3.1194    6.5131    2.6516 H   0  0  0  0  0  0  0  0  0  0  0  0
   -4.2262    4.6522   -0.3162 H   0  0  0  0  0  0  0  0  0  0  0  0
   -4.6427    2.6579   -1.7889 H   0  0  0  0  0  0  0  0  0  0  0  0
   -0.7744   -0.1069    2.6034 H   0  0  0  0  0  0  0  0  0  0  0  0
   -2.3184   -1.2870    2.3151 H   0  0  0  0  0  0  0  0  0  0  0  0
   -3.5839   -0.1912    1.8018 H   0  0  0  0  0  0  0  0  0  0  0  0
   -3.3990   -2.8187    0.9536 H   0  0  0  0  0  0  0  0  0  0  0  0
   -4.3998   -1.5196    0.2527 H   0  0  0  0  0  0  0  0  0  0  0  0
   -1.8634   -1.0303   -2.4042 H   0  0  0  0  0  0  0  0  0  0  0  0
   -4.4284   -0.2862   -1.3557 H   0  0  0  0  0  0  0  0  0  0  0  0
   -3.4866    0.4714   -2.6250 H   0  0  0  0  0  0  0  0  0  0  0  0
   -1.0990    1.6570   -1.5554 H   0  0  0  0  0  0  0  0  0  0  0  0
    0.1697    0.5328   -2.0258 H   0  0  0  0  0  0  0  0  0  0  0  0
    1.4277    1.8580   -0.5593 H   0  0  0  0  0  0  0  0  0  0  0  0
    0.0092    2.5455    0.2030 H   0  0  0  0  0  0  0  0  0  0  0  0
    0.6978    2.6724    3.0297 H   0  0  0  0  0  0  0  0  0  0  0  0
    2.4507    2.6214    2.9080 H   0  0  0  0  0  0  0  0  0  0  0  0
    1.5055    3.1361    1.5100 H   0  0  0  0  0  0  0  0  0  0  0  0
    1.0420   -1.3009    1.6084 H   0  0  0  0  0  0  0  0  0  0  0  0
    0.1437   -1.8550   -1.0851 H   0  0  0  0  0  0  0  0  0  0  0  0
   -0.6565   -2.1680    0.4506 H   0  0  0  0  0  0  0  0  0  0  0  0
    2.1103   -0.4802   -1.1842 H   0  0  0  0  0  0  0  0  0  0  0  0
    2.2802   -2.0266   -0.3863 H   0  0  0  0  0  0  0  0  0  0  0  0
    4.6624   -0.3327   -1.7133 H   0  0  0  0  0  0  0  0  0  0  0  0
    4.9350   -1.9340   -0.9818 H   0  0  0  0  0  0  0  0  0  0  0  0
    6.3652    1.4890   -1.0843 H   0  0  0  0  0  0  0  0  0  0  0  0
    8.6925    1.9358   -0.2655 H   0  0  0  0  0  0  0  0  0  0  0  0
    9.9220    0.1600    0.9604 H   0  0  0  0  0  0  0  0  0  0  0  0
    8.8642   -1.9784    1.3513 H   0  0  0  0  0  0  0  0  0  0  0  0
    6.5888   -2.4363    0.5586 H   0  0  0  0  0  0  0  0  0  0  0  0
   -3.2890   -2.7211   -2.7311 H   0  0  0  0  0  0  0  0  0  0  0  0
   -4.6162   -2.2683   -1.6025 H   0  0  0  0  0  0  0  0  0  0  0  0
   -4.6274   -4.3794   -0.4542 H   0  0  0  0  0  0  0  0  0  0  0  0
   -2.6152   -5.8425   -0.2918 H   0  0  0  0  0  0  0  0  0  0  0  0
   -1.6859   -4.6878   -1.4731 H   0  0  0  0  0  0  0  0  0  0  0  0
   -4.2974   -6.2005   -2.1262 H   0  0  0  0  0  0  0  0  0  0  0  0
   -3.4037   -5.0665   -3.2578 H   0  0  0  0  0  0  0  0  0  0  0  0
  1  2  1  0
  2  3  1  0
  3  4  2  0
  4  5  1  0
  5  6  2  0
  6  7  1  0
  7  8  2  0
  8  9  1  0
  9 10  1  0
 10 11  1  0
 11 12  1  1
 12 13  1  0
 13 14  1  0
 14 15  1  0
 15 16  1  0
 15 17  1  0
 17 18  1  6
 18 19  1  0
 19 20  1  0
 20 21  1  1
 21 22  1  0
 20 23  1  0
 23 24  1  0
 23 25  1  0
 25 26  1  0
 26 27  2  0
 26 28  1  0
 28 29  1  0
 29 30  2  0
 30 31  1  0
 31 32  2  0
 32 33  1  0
 33 34  2  0
 14 35  1  0
 35 36  1  0
 36 37  1  0
 37 38  1  0
  8  3  1  0
 20 10  1  0
 34 29  1  0
 38 36  1  0
 16  6  1  0
 24 17  1  0
 11  7  1  0
 17 11  1  0
  1 39  1  0
  1 40  1  0
  1 41  1  0
  4 42  1  0
  5 43  1  0
 10 44  1  1
 12 45  1  0
 12 46  1  0
 13 47  1  0
 13 48  1  0
 15 49  1  6
 16 50  1  0
 16 51  1  0
 18 52  1  0
 18 53  1  0
 19 54  1  0
 19 55  1  0
 22 56  1  0
 22 57  1  0
 22 58  1  0
 23 59  1  1
 24 60  1  0
 24 61  1  0
 25 62  1  0
 25 63  1  0
 28 64  1  0
 28 65  1  0
 30 66  1  0
 31 67  1  0
 32 68  1  0
 33 69  1  0
 34 70  1  0
 35 71  1  0
 35 72  1  0
 36 73  1  0
 37 74  1  0
 37 75  1  0
 38 76  1  0
 38 77  1  0
M  END
>  <Ligand ID>  (1) 
LIG0004779

>  <Ligand>  (1) 
CHEMBL3946612

>  <SMILES>  (1) 
COc1ccc2c3c1O[C@H]1[C@]43CCN([C@@H](C2)[C@]24CC[C@]1(OC)[C@@H](C2)CS(=O)Cc1ccccc1)CC1CC1

>  <CID>  (1) 
134147442.0

>  <ChEMBL ID>  (1) 
nan

>  <InChiKey>  (1) 
GJUXFJLLYFLPTH-YPELJRASSA-N

>  <InChi>  (1) 
InChI=1S/C32H39NO4S/c1-35-25-11-10-23-16-26-30-12-13-32(36-2,24(17-30)20-38(34)19-22-6-4-3-5-7-22)29-31(30,27(23)28(25)37-29)14-15-33(26)18-21-8-9-21/h3-7,10-11,21,24,26,29H,8-9,12-20H2,1-2H3/t24-,26-,29-,30-,31+,32-,38?/m0/s1

>  <IUPAC Name>  (1) 
(1R,2R,6S,14S,15S,16R)-16-(benzylsulfinylmethyl)-5-(cyclopropylmethyl)-11,15-dimethoxy-13-oxa-5-azahexacyclo[13.2.2.12,8.01,6.02,14.012,20]icosa-8(20),9,11-triene

$$$$
