
     RDKit          3D

 35 37  0  0  0  0  0  0  0  0999 V2000
   -4.4220    0.0898   -0.5615 C   0  0  0  0  0  0  0  0  0  0  0  0
   -3.4472   -0.9676   -0.5211 N   0  0  0  0  0  0  0  0  0  0  0  0
   -3.7357   -2.2286   -0.8705 N   0  0  0  0  0  0  0  0  0  0  0  0
   -2.6388   -2.9994   -0.7350 C   0  0  0  0  0  0  0  0  0  0  0  0
   -1.6092   -2.1987   -0.2812 C   0  0  0  0  0  0  0  0  0  0  0  0
   -2.1427   -0.9282   -0.1551 C   0  0  0  0  0  0  0  0  0  0  0  0
   -1.4910    0.3022    0.2873 C   0  0  0  0  0  0  0  0  0  0  0  0
   -2.1675    1.0980    1.1857 C   0  0  0  0  0  0  0  0  0  0  0  0
   -1.6143    2.2807    1.6519 C   0  0  0  0  0  0  0  0  0  0  0  0
   -0.3647    2.6266    1.1814 C   0  0  0  0  0  0  0  0  0  0  0  0
    0.2973    1.8219    0.2850 C   0  0  0  0  0  0  0  0  0  0  0  0
   -0.2201    0.6486   -0.1945 C   0  0  0  0  0  0  0  0  0  0  0  0
    0.3570   -0.2088   -1.0790 O   0  0  0  0  0  0  0  0  0  0  0  0
    1.5993   -0.0268   -1.6429 C   0  0  0  0  0  0  0  0  0  0  0  0
    2.7268    0.0165   -0.6710 C   0  0  0  0  0  0  0  0  0  0  0  0
    3.6501    0.9018   -0.5164 N   0  0  0  0  0  0  0  0  0  0  0  0
    4.5360    0.5266    0.5560 C   0  0  0  0  0  0  0  0  0  0  0  0
    4.2747   -0.9449    0.8038 C   0  0  0  0  0  0  0  0  0  0  0  0
    2.9176   -1.0561    0.2786 N   0  0  0  0  0  0  0  0  0  0  0  0
   -3.9831    1.0825   -0.7023 H   0  0  0  0  0  0  0  0  0  0  0  0
   -5.0844   -0.0830   -1.4519 H   0  0  0  0  0  0  0  0  0  0  0  0
   -5.0770    0.0063    0.3305 H   0  0  0  0  0  0  0  0  0  0  0  0
   -2.6073   -4.0626   -0.9544 H   0  0  0  0  0  0  0  0  0  0  0  0
   -0.5987   -2.4778   -0.0641 H   0  0  0  0  0  0  0  0  0  0  0  0
   -3.1479    0.8497    1.5699 H   0  0  0  0  0  0  0  0  0  0  0  0
   -2.1481    2.9001    2.3553 H   0  0  0  0  0  0  0  0  0  0  0  0
    0.0800    3.5384    1.5305 H   0  0  0  0  0  0  0  0  0  0  0  0
    1.2650    2.1490   -0.0496 H   0  0  0  0  0  0  0  0  0  0  0  0
    1.8421   -0.8470   -2.3778 H   0  0  0  0  0  0  0  0  0  0  0  0
    1.6016    0.9096   -2.2559 H   0  0  0  0  0  0  0  0  0  0  0  0
    5.5933    0.7250    0.3008 H   0  0  0  0  0  0  0  0  0  0  0  0
    4.2242    1.1132    1.4582 H   0  0  0  0  0  0  0  0  0  0  0  0
    4.3746   -1.2491    1.8446 H   0  0  0  0  0  0  0  0  0  0  0  0
    4.9158   -1.5226    0.1071 H   0  0  0  0  0  0  0  0  0  0  0  0
    2.2444   -1.7854    0.5606 H   0  0  0  0  0  0  0  0  0  0  0  0
  1  2  1  0
  2  3  1  0
  3  4  2  0
  4  5  1  0
  5  6  2  0
  6  7  1  0
  7  8  2  0
  8  9  1  0
  9 10  2  0
 10 11  1  0
 11 12  2  0
 12 13  1  0
 13 14  1  0
 14 15  1  0
 15 16  2  0
 16 17  1  0
 17 18  1  0
 18 19  1  0
  6  2  1  0
 12  7  1  0
 19 15  1  0
  1 20  1  0
  1 21  1  0
  1 22  1  0
  4 23  1  0
  5 24  1  0
  8 25  1  0
  9 26  1  0
 10 27  1  0
 11 28  1  0
 14 29  1  0
 14 30  1  0
 17 31  1  0
 17 32  1  0
 18 33  1  0
 18 34  1  0
 19 35  1  0
M  END
>  <Ligand ID>  (1) 
LIG0004559

>  <Ligand>  (1) 
CHEMBL142967

>  <SMILES>  (1) 
Cn1nccc1c1ccccc1OCC1=NCCN1

>  <CID>  (1) 
10083742.0

>  <ChEMBL ID>  (1) 
nan

>  <InChiKey>  (1) 
OORBCPFAQRRXTM-UHFFFAOYSA-N

>  <InChi>  (1) 
InChI=1S/C14H16N4O/c1-18-12(6-7-17-18)11-4-2-3-5-13(11)19-10-14-15-8-9-16-14/h2-7H,8-10H2,1H3,(H,15,16)

>  <IUPAC Name>  (1) 
5-[2-(4,5-dihydro-1H-imidazol-2-ylmethoxy)phenyl]-1-methylpyrazole

$$$$
