
     RDKit          3D

 59 62  0  0  0  0  0  0  0  0999 V2000
   -0.5866    0.0249    3.5737 N   0  0  0  0  0  0  0  0  0  0  0  0
   -0.3490    0.0360    2.4428 C   0  0  0  0  0  0  0  0  0  0  0  0
   -0.0263    0.0313    0.9920 C   0  0  0  0  0  0  0  0  0  0  0  0
    0.6776    1.3120    0.7296 C   0  0  0  0  0  0  0  0  0  0  0  0
   -0.0545    2.4419    0.8901 N   0  0  0  0  0  0  0  0  0  0  0  0
    0.5234    3.6351    0.6620 C   0  0  0  0  0  0  0  0  0  0  0  0
   -0.2394    4.7721    0.8312 C   0  0  0  0  0  0  0  0  0  0  0  0
    0.2953    6.0337    0.6124 C   0  0  0  0  0  0  0  0  0  0  0  0
    1.6208    6.1138    0.2184 C   0  0  0  0  0  0  0  0  0  0  0  0
    2.4134    4.9921    0.0398 C   0  0  0  0  0  0  0  0  0  0  0  0
    1.8466    3.7525    0.2669 C   0  0  0  0  0  0  0  0  0  0  0  0
    2.5441    2.6066    0.1175 N   0  0  0  0  0  0  0  0  0  0  0  0
    1.9926    1.3853    0.3393 C   0  0  0  0  0  0  0  0  0  0  0  0
    2.8123    0.2068    0.1621 N   0  0  0  0  0  0  0  0  0  0  0  0
    3.1418   -0.6633    1.2734 C   0  0  0  0  0  0  0  0  0  0  0  0
    3.2136   -2.0798    0.7441 C   0  0  0  0  0  0  0  0  0  0  0  0
    4.3683   -2.0855   -0.2443 C   0  0  0  0  0  0  0  0  0  0  0  0
    3.9500   -1.3063   -1.4482 C   0  0  0  0  0  0  0  0  0  0  0  0
    3.2680   -0.0182   -1.1957 C   0  0  0  0  0  0  0  0  0  0  0  0
    4.7176   -3.4665   -0.6819 C   0  0  0  0  0  0  0  0  0  0  0  0
    4.6575   -3.8133   -1.9099 O   0  0  0  0  0  0  0  0  0  0  0  0
    5.1343   -4.4459    0.2874 N   0  0  0  0  0  0  0  0  0  0  0  0
   -1.3666    0.1494    0.3022 C   0  0  0  0  0  0  0  0  0  0  0  0
   -1.6435    1.2146   -0.3243 O   0  0  0  0  0  0  0  0  0  0  0  0
   -2.2905   -0.9217    0.3627 N   0  0  0  0  0  0  0  0  0  0  0  0
   -3.5706   -0.7609   -0.3185 C   0  0  0  0  0  0  0  0  0  0  0  0
   -3.8013   -1.8183   -1.3484 C   0  0  0  0  0  0  0  0  0  0  0  0
   -5.2559   -2.2161   -1.4188 C   0  0  0  0  0  0  0  0  0  0  0  0
   -6.1802   -1.0446   -1.1649 C   0  0  0  0  0  0  0  0  0  0  0  0
   -6.0040   -0.6230    0.2676 C   0  0  0  0  0  0  0  0  0  0  0  0
   -4.6212   -0.8997    0.7655 C   0  0  0  0  0  0  0  0  0  0  0  0
    0.5047   -0.8608    0.6703 H   0  0  0  0  0  0  0  0  0  0  0  0
   -1.2705    4.6771    1.1392 H   0  0  0  0  0  0  0  0  0  0  0  0
   -0.2918    6.9266    0.7417 H   0  0  0  0  0  0  0  0  0  0  0  0
    2.0222    7.1095    0.0519 H   0  0  0  0  0  0  0  0  0  0  0  0
    3.4527    5.0597   -0.2693 H   0  0  0  0  0  0  0  0  0  0  0  0
    2.4168   -0.6741    2.0843 H   0  0  0  0  0  0  0  0  0  0  0  0
    4.1314   -0.3588    1.6957 H   0  0  0  0  0  0  0  0  0  0  0  0
    2.3189   -2.3257    0.1761 H   0  0  0  0  0  0  0  0  0  0  0  0
    3.4743   -2.8082    1.5412 H   0  0  0  0  0  0  0  0  0  0  0  0
    5.2651   -1.6842    0.2745 H   0  0  0  0  0  0  0  0  0  0  0  0
    3.3834   -1.9784   -2.1392 H   0  0  0  0  0  0  0  0  0  0  0  0
    4.9032   -1.1000   -2.0207 H   0  0  0  0  0  0  0  0  0  0  0  0
    2.3853    0.0618   -1.8789 H   0  0  0  0  0  0  0  0  0  0  0  0
    3.9271    0.8528   -1.4865 H   0  0  0  0  0  0  0  0  0  0  0  0
    5.9486   -4.2307    0.9125 H   0  0  0  0  0  0  0  0  0  0  0  0
    4.6088   -5.3599    0.3459 H   0  0  0  0  0  0  0  0  0  0  0  0
   -2.0938   -1.8144    0.8710 H   0  0  0  0  0  0  0  0  0  0  0  0
   -3.6040    0.2391   -0.7990 H   0  0  0  0  0  0  0  0  0  0  0  0
   -3.4352   -1.4422   -2.3272 H   0  0  0  0  0  0  0  0  0  0  0  0
   -3.1719   -2.6926   -1.0852 H   0  0  0  0  0  0  0  0  0  0  0  0
   -5.4597   -2.6358   -2.4040 H   0  0  0  0  0  0  0  0  0  0  0  0
   -5.4579   -2.9380   -0.6000 H   0  0  0  0  0  0  0  0  0  0  0  0
   -7.2160   -1.4278   -1.2947 H   0  0  0  0  0  0  0  0  0  0  0  0
   -5.9604   -0.1821   -1.8033 H   0  0  0  0  0  0  0  0  0  0  0  0
   -6.7598   -1.1387    0.9051 H   0  0  0  0  0  0  0  0  0  0  0  0
   -6.2438    0.4702    0.3478 H   0  0  0  0  0  0  0  0  0  0  0  0
   -4.5808   -1.9821    1.0716 H   0  0  0  0  0  0  0  0  0  0  0  0
   -4.3845   -0.3073    1.6479 H   0  0  0  0  0  0  0  0  0  0  0  0
  1  2  3  0
  2  3  1  0
  3  4  1  0
  4  5  2  0
  5  6  1  0
  6  7  2  0
  7  8  1  0
  8  9  2  0
  9 10  1  0
 10 11  2  0
 11 12  1  0
 12 13  2  0
 13 14  1  0
 14 15  1  0
 15 16  1  0
 16 17  1  0
 17 18  1  0
 18 19  1  0
 17 20  1  0
 20 21  2  0
 20 22  1  0
  3 23  1  0
 23 24  2  0
 23 25  1  0
 25 26  1  0
 26 27  1  0
 27 28  1  0
 28 29  1  0
 29 30  1  0
 30 31  1  0
 13  4  1  0
 19 14  1  0
 31 26  1  0
 11  6  1  0
  3 32  1  0
  7 33  1  0
  8 34  1  0
  9 35  1  0
 10 36  1  0
 15 37  1  0
 15 38  1  0
 16 39  1  0
 16 40  1  0
 17 41  1  0
 18 42  1  0
 18 43  1  0
 19 44  1  0
 19 45  1  0
 22 46  1  0
 22 47  1  0
 25 48  1  0
 26 49  1  0
 27 50  1  0
 27 51  1  0
 28 52  1  0
 28 53  1  0
 29 54  1  0
 29 55  1  0
 30 56  1  0
 30 57  1  0
 31 58  1  0
 31 59  1  0
M  END
>  <Ligand ID>  (1) 
LIG0003057

>  <Ligand>  (1) 
MLS000079941

>  <SMILES>  (1) 
N#CC(c1nc2ccccc2nc1N1CCC(CC1)C(=O)N)C(=O)NC1CCCCC1

>  <CID>  (1) 
660662.0

>  <ChEMBL ID>  (1) 
nan

>  <InChiKey>  (1) 
ZARNIAJBXGUBFV-UHFFFAOYSA-N

>  <InChi>  (1) 
InChI=1S/C23H28N6O2/c24-14-17(23(31)26-16-6-2-1-3-7-16)20-22(28-19-9-5-4-8-18(19)27-20)29-12-10-15(11-13-29)21(25)30/h4-5,8-9,15-17H,1-3,6-7,10-13H2,(H2,25,30)(H,26,31)

>  <IUPAC Name>  (1) 
1-[3-[1-cyano-2-(cyclohexylamino)-2-oxoethyl]quinoxalin-2-yl]piperidine-4-carboxamide

$$$$
