
     RDKit          3D

 84 88  0  0  0  0  0  0  0  0999 V2000
    3.3560    6.6046    2.5842 N   0  0  0  0  0  0  0  0  0  0  0  0
    2.3235    5.7365    2.0967 C   0  0  0  0  0  0  0  0  0  0  0  0
    2.4468    5.1022    0.9870 N   0  0  0  0  0  0  0  0  0  0  0  0
    1.3590    4.2422    0.5590 C   0  0  0  0  0  0  0  0  0  0  0  0
    1.4475    2.8583    1.1526 C   0  0  0  0  0  0  0  0  0  0  0  0
    0.3039    1.9666    0.6905 C   0  0  0  0  0  0  0  0  0  0  0  0
    0.3178    1.8275   -0.7918 C   0  0  1  0  0  0  0  0  0  0  0  0
    1.6055    1.2446   -1.2821 C   0  0  0  0  0  0  0  0  0  0  0  0
    1.2447    0.1600   -2.2916 C   0  0  2  0  0  0  0  0  0  0  0  0
   -0.1998    0.5211   -2.5670 C   0  0  0  0  0  0  0  0  0  0  0  0
   -0.7011    0.8354   -1.2105 N   0  0  0  0  0  0  0  0  0  0  0  0
   -1.7973    0.3384   -0.5043 C   0  0  0  0  0  0  0  0  0  0  0  0
   -2.0130    0.8274    0.6570 O   0  0  0  0  0  0  0  0  0  0  0  0
   -2.7569   -0.6954   -0.9354 C   0  0  2  0  0  0  0  0  0  0  0  0
   -3.8850   -0.7722   -0.0100 N   0  0  0  0  0  0  0  0  0  0  0  0
   -3.7488   -1.1311    1.3538 C   0  0  0  0  0  0  0  0  0  0  0  0
   -2.6495   -1.4110    1.8840 O   0  0  0  0  0  0  0  0  0  0  0  0
   -4.9522   -1.1855    2.2176 C   0  0  2  0  0  0  0  0  0  0  0  0
   -5.5164    0.2010    2.4795 C   0  0  0  0  0  0  0  0  0  0  0  0
   -6.4565   -0.0997    3.6310 C   0  0  0  0  0  0  0  0  0  0  0  0
   -5.8655   -1.3310    4.2702 C   0  0  0  0  0  0  0  0  0  0  0  0
   -4.6260   -1.6032    3.5685 N   0  0  0  0  0  0  0  0  0  0  0  0
   -2.0287   -2.0240   -0.9922 C   0  0  0  0  0  0  0  0  0  0  0  0
   -2.9008   -3.1507   -1.4197 C   0  0  0  0  0  0  0  0  0  0  0  0
   -3.0060   -3.3410   -2.8014 C   0  0  0  0  0  0  0  0  0  0  0  0
   -3.7993   -4.3838   -3.2496 C   0  0  0  0  0  0  0  0  0  0  0  0
   -4.4714   -5.2190   -2.3740 C   0  0  0  0  0  0  0  0  0  0  0  0
   -4.3653   -5.0284   -0.9948 C   0  0  0  0  0  0  0  0  0  0  0  0
   -3.5654   -3.9765   -0.5428 C   0  0  0  0  0  0  0  0  0  0  0  0
    1.3787   -1.0468   -1.6625 O   0  0  0  0  0  0  0  0  0  0  0  0
    2.3293   -1.9035   -2.1186 C   0  0  0  0  0  0  0  0  0  0  0  0
    3.7150   -1.3574   -2.0253 C   0  0  0  0  0  0  0  0  0  0  0  0
    4.3537   -0.7298   -3.0671 C   0  0  0  0  0  0  0  0  0  0  0  0
    5.6413   -0.2308   -2.8855 C   0  0  0  0  0  0  0  0  0  0  0  0
    6.2418   -0.3851   -1.6474 C   0  0  0  0  0  0  0  0  0  0  0  0
    5.6009   -1.0149   -0.6022 C   0  0  0  0  0  0  0  0  0  0  0  0
    4.3243   -1.5135   -0.7720 C   0  0  0  0  0  0  0  0  0  0  0  0
    6.1837   -1.1765    0.6412 C   0  0  0  0  0  0  0  0  0  0  0  0
    7.4522   -0.6900    0.8413 C   0  0  0  0  0  0  0  0  0  0  0  0
    8.1013   -0.0581   -0.2000 C   0  0  0  0  0  0  0  0  0  0  0  0
    7.5193    0.1074   -1.4525 C   0  0  0  0  0  0  0  0  0  0  0  0
    1.1642    5.6224    2.9071 N   0  0  0  0  0  0  0  0  0  0  0  0
    3.0909    7.5945    2.8622 H   0  0  0  0  0  0  0  0  0  0  0  0
    4.3365    6.2615    2.6613 H   0  0  0  0  0  0  0  0  0  0  0  0
    0.3642    4.6993    0.7664 H   0  0  0  0  0  0  0  0  0  0  0  0
    1.3919    4.1473   -0.5610 H   0  0  0  0  0  0  0  0  0  0  0  0
    1.3692    2.9880    2.2662 H   0  0  0  0  0  0  0  0  0  0  0  0
    2.4280    2.4328    0.9101 H   0  0  0  0  0  0  0  0  0  0  0  0
   -0.6172    2.5719    0.9487 H   0  0  0  0  0  0  0  0  0  0  0  0
    0.2700    1.0390    1.2632 H   0  0  0  0  0  0  0  0  0  0  0  0
    0.0492    2.7847   -1.2555 H   0  0  0  0  0  0  0  0  0  0  0  0
    2.2489    0.8382   -0.4722 H   0  0  0  0  0  0  0  0  0  0  0  0
    2.1740    2.0543   -1.7898 H   0  0  0  0  0  0  0  0  0  0  0  0
    1.9034    0.3126   -3.1576 H   0  0  0  0  0  0  0  0  0  0  0  0
   -0.1476    1.4691   -3.1646 H   0  0  0  0  0  0  0  0  0  0  0  0
   -0.7997   -0.1733   -3.0922 H   0  0  0  0  0  0  0  0  0  0  0  0
   -3.0859   -0.4875   -1.9526 H   0  0  0  0  0  0  0  0  0  0  0  0
   -4.8572   -0.5528   -0.3631 H   0  0  0  0  0  0  0  0  0  0  0  0
   -5.7613   -1.8106    1.8472 H   0  0  0  0  0  0  0  0  0  0  0  0
   -6.0266    0.6414    1.6022 H   0  0  0  0  0  0  0  0  0  0  0  0
   -4.7135    0.8383    2.9011 H   0  0  0  0  0  0  0  0  0  0  0  0
   -6.5463    0.7442    4.3460 H   0  0  0  0  0  0  0  0  0  0  0  0
   -7.4436   -0.3490    3.1918 H   0  0  0  0  0  0  0  0  0  0  0  0
   -6.5041   -2.2255    4.1039 H   0  0  0  0  0  0  0  0  0  0  0  0
   -5.7035   -1.1729    5.3655 H   0  0  0  0  0  0  0  0  0  0  0  0
   -4.3663   -2.6156    3.6147 H   0  0  0  0  0  0  0  0  0  0  0  0
   -1.1948   -1.9219   -1.7009 H   0  0  0  0  0  0  0  0  0  0  0  0
   -1.5727   -2.2117    0.0026 H   0  0  0  0  0  0  0  0  0  0  0  0
   -2.4856   -2.6896   -3.4922 H   0  0  0  0  0  0  0  0  0  0  0  0
   -3.8588   -4.5012   -4.3274 H   0  0  0  0  0  0  0  0  0  0  0  0
   -5.0909   -6.0354   -2.7554 H   0  0  0  0  0  0  0  0  0  0  0  0
   -4.8721   -5.6588   -0.2788 H   0  0  0  0  0  0  0  0  0  0  0  0
   -3.4852   -3.8418    0.5173 H   0  0  0  0  0  0  0  0  0  0  0  0
    2.2589   -2.8354   -1.4885 H   0  0  0  0  0  0  0  0  0  0  0  0
    2.1339   -2.2867   -3.1600 H   0  0  0  0  0  0  0  0  0  0  0  0
    3.8865   -0.6199   -4.0240 H   0  0  0  0  0  0  0  0  0  0  0  0
    6.1447    0.2663   -3.7185 H   0  0  0  0  0  0  0  0  0  0  0  0
    3.8022   -2.0153    0.0463 H   0  0  0  0  0  0  0  0  0  0  0  0
    5.6766   -1.6726    1.4627 H   0  0  0  0  0  0  0  0  0  0  0  0
    7.9131   -0.8187    1.8282 H   0  0  0  0  0  0  0  0  0  0  0  0
    9.0853    0.3286   -0.0713 H   0  0  0  0  0  0  0  0  0  0  0  0
    8.0460    0.6060   -2.2573 H   0  0  0  0  0  0  0  0  0  0  0  0
    1.2311    5.1230    3.8251 H   0  0  0  0  0  0  0  0  0  0  0  0
    0.2235    6.0183    2.6297 H   0  0  0  0  0  0  0  0  0  0  0  0
  1  2  1  0
  2  3  2  3
  3  4  1  0
  4  5  1  0
  5  6  1  0
  6  7  1  0
  7  8  1  0
  8  9  1  0
  9 10  1  0
 10 11  1  0
 11 12  1  0
 12 13  2  0
 12 14  1  0
 14 15  1  0
 15 16  1  0
 16 17  2  0
 16 18  1  0
 18 19  1  0
 19 20  1  0
 20 21  1  0
 21 22  1  0
 14 23  1  0
 23 24  1  0
 24 25  2  0
 25 26  1  0
 26 27  2  0
 27 28  1  0
 28 29  2  0
  9 30  1  0
 30 31  1  0
 31 32  1  0
 32 33  2  0
 33 34  1  0
 34 35  2  0
 35 36  1  0
 36 37  2  0
 36 38  1  0
 38 39  2  0
 39 40  1  0
 40 41  2  0
  2 42  1  0
 11  7  1  0
 22 18  1  0
 29 24  1  0
 37 32  1  0
 41 35  1  0
  1 43  1  0
  1 44  1  0
  4 45  1  0
  4 46  1  0
  5 47  1  0
  5 48  1  0
  6 49  1  0
  6 50  1  0
  7 51  1  6
  8 52  1  0
  8 53  1  0
  9 54  1  6
 10 55  1  0
 10 56  1  0
 14 57  1  6
 15 58  1  0
 18 59  1  6
 19 60  1  0
 19 61  1  0
 20 62  1  0
 20 63  1  0
 21 64  1  0
 21 65  1  0
 22 66  1  0
 23 67  1  0
 23 68  1  0
 25 69  1  0
 26 70  1  0
 27 71  1  0
 28 72  1  0
 29 73  1  0
 31 74  1  0
 31 75  1  0
 33 76  1  0
 34 77  1  0
 37 78  1  0
 38 79  1  0
 39 80  1  0
 40 81  1  0
 41 82  1  0
 42 83  1  0
 42 84  1  0
M  END
>  <Ligand ID>  (1) 
LIG0002901

>  <Ligand>  (1) 
CHEMBL375440

>  <SMILES>  (1) 
NC(=NCCC[C@H]1C[C@H](CN1C(=O)[C@H](NC(=O)[C@@H]1CCCN1)Cc1ccccc1)OCc1ccc2c(c1)cccc2)N

>  <CID>  (1) 
44413932.0

>  <ChEMBL ID>  (1) 
nan

>  <InChiKey>  (1) 
ZTBIYCCYYNUCCA-RRGQHJHPSA-N

>  <InChi>  (1) 
InChI=1S/C33H42N6O3/c34-33(35)37-17-6-12-27-20-28(42-22-24-14-15-25-10-4-5-11-26(25)18-24)21-39(27)32(41)30(19-23-8-2-1-3-9-23)38-31(40)29-13-7-16-36-29/h1-5,8-11,14-15,18,27-30,36H,6-7,12-13,16-17,19-22H2,(H,38,40)(H4,34,35,37)/t27-,28+,29-,30+/m0/s1

>  <IUPAC Name>  (1) 
(2S)-N-[(2R)-1-[(2S,4R)-2-[3-(diaminomethylideneamino)propyl]-4-(naphthalen-2-ylmethoxy)pyrrolidin-1-yl]-1-oxo-3-phenylpropan-2-yl]pyrrolidine-2-carboxamide

$$$$
