
     RDKit          3D

 50 52  0  0  0  0  0  0  0  0999 V2000
   -7.7460   -1.8020    1.4227 C   0  0  0  0  0  0  0  0  0  0  0  0
   -7.3461   -0.4429    1.0508 N   0  0  0  0  0  0  0  0  0  0  0  0
   -6.0268   -0.1310    0.6218 C   0  0  0  0  0  0  0  0  0  0  0  0
   -5.6523    1.1679    0.2650 C   0  0  0  0  0  0  0  0  0  0  0  0
   -4.3510    1.4466   -0.1529 C   0  0  0  0  0  0  0  0  0  0  0  0
   -3.3884    0.4385   -0.2263 C   0  0  0  0  0  0  0  0  0  0  0  0
   -3.8083   -0.8244    0.1362 C   0  0  0  0  0  0  0  0  0  0  0  0
   -5.0849   -1.1097    0.5486 C   0  0  0  0  0  0  0  0  0  0  0  0
   -2.0259    0.7305   -0.6694 C   0  0  0  0  0  0  0  0  0  0  0  0
   -1.1235    1.1044    0.3318 C   0  0  0  0  0  0  0  0  0  0  0  0
   -1.5623    1.1809    1.7111 C   0  0  0  0  0  0  0  0  0  0  0  0
   -1.8989    1.2391    2.8350 N   0  0  0  0  0  0  0  0  0  0  0  0
    0.1999    1.4034   -0.0113 C   0  0  0  0  0  0  0  0  0  0  0  0
    1.2696    1.8716    1.3395 S   0  0  0  0  0  0  0  0  0  0  0  0
    2.0583    0.3889    2.0142 C   0  0  0  0  0  0  0  0  0  0  0  0
    3.0067   -0.2259    1.0531 C   0  0  0  0  0  0  0  0  0  0  0  0
    2.6582   -1.1931    0.1385 C   0  0  0  0  0  0  0  0  0  0  0  0
    3.6644   -1.6591   -0.6869 C   0  0  0  0  0  0  0  0  0  0  0  0
    4.9416   -1.1877   -0.6040 N   0  0  0  0  0  0  0  0  0  0  0  0
    5.3043   -0.2458    0.2790 C   0  0  0  0  0  0  0  0  0  0  0  0
    4.3248    0.2430    1.1198 C   0  0  0  0  0  0  0  0  0  0  0  0
    6.6629    0.2806    0.3903 C   0  0  0  0  0  0  0  0  0  0  0  0
    6.9201    1.1734    1.2590 O   0  0  0  0  0  0  0  0  0  0  0  0
    7.7144   -0.1818   -0.4530 N   0  0  0  0  0  0  0  0  0  0  0  0
    9.0271    0.4362   -0.2300 C   0  0  0  0  0  0  0  0  0  0  0  0
    0.5780    1.3276   -1.2781 N   0  0  0  0  0  0  0  0  0  0  0  0
   -0.3012    0.9629   -2.2552 C   0  0  0  0  0  0  0  0  0  0  0  0
   -1.6144    0.6590   -1.9683 C   0  0  0  0  0  0  0  0  0  0  0  0
   -2.5612    0.2715   -2.9846 C   0  0  0  0  0  0  0  0  0  0  0  0
   -3.3184   -0.0272   -3.8125 N   0  0  0  0  0  0  0  0  0  0  0  0
    0.1594    0.8981   -3.5988 N   0  0  0  0  0  0  0  0  0  0  0  0
   -6.9160   -2.1935    2.0457 H   0  0  0  0  0  0  0  0  0  0  0  0
   -7.8862   -2.3826    0.4817 H   0  0  0  0  0  0  0  0  0  0  0  0
   -8.7127   -1.7636    1.9595 H   0  0  0  0  0  0  0  0  0  0  0  0
   -8.0575    0.3181    1.1040 H   0  0  0  0  0  0  0  0  0  0  0  0
   -6.4155    1.9125    0.3339 H   0  0  0  0  0  0  0  0  0  0  0  0
   -4.1257    2.4573   -0.4119 H   0  0  0  0  0  0  0  0  0  0  0  0
   -3.0640   -1.6117    0.0809 H   0  0  0  0  0  0  0  0  0  0  0  0
   -5.2988   -2.1367    0.8072 H   0  0  0  0  0  0  0  0  0  0  0  0
    1.3211   -0.3441    2.4028 H   0  0  0  0  0  0  0  0  0  0  0  0
    2.6098    0.7320    2.9376 H   0  0  0  0  0  0  0  0  0  0  0  0
    1.6376   -1.5440    0.0999 H   0  0  0  0  0  0  0  0  0  0  0  0
    3.3998   -2.4285   -1.4184 H   0  0  0  0  0  0  0  0  0  0  0  0
    4.6076    1.0132    1.8468 H   0  0  0  0  0  0  0  0  0  0  0  0
    7.5564   -0.9123   -1.1800 H   0  0  0  0  0  0  0  0  0  0  0  0
    9.7988   -0.1615   -0.7175 H   0  0  0  0  0  0  0  0  0  0  0  0
    9.0162    1.4964   -0.5589 H   0  0  0  0  0  0  0  0  0  0  0  0
    9.1569    0.4463    0.8804 H   0  0  0  0  0  0  0  0  0  0  0  0
    0.5573    0.0121   -4.0235 H   0  0  0  0  0  0  0  0  0  0  0  0
    0.1349    1.7230   -4.2555 H   0  0  0  0  0  0  0  0  0  0  0  0
  1  2  1  0
  2  3  1  0
  3  4  2  0
  4  5  1  0
  5  6  2  0
  6  7  1  0
  7  8  2  0
  6  9  1  0
  9 10  2  0
 10 11  1  0
 11 12  3  0
 10 13  1  0
 13 14  1  0
 14 15  1  0
 15 16  1  0
 16 17  2  0
 17 18  1  0
 18 19  2  0
 19 20  1  0
 20 21  2  0
 20 22  1  0
 22 23  2  0
 22 24  1  0
 24 25  1  0
 13 26  2  0
 26 27  1  0
 27 28  2  0
 28 29  1  0
 29 30  3  0
 27 31  1  0
  8  3  1  0
 28  9  1  0
 21 16  1  0
  1 32  1  0
  1 33  1  0
  1 34  1  0
  2 35  1  0
  4 36  1  0
  5 37  1  0
  7 38  1  0
  8 39  1  0
 15 40  1  0
 15 41  1  0
 17 42  1  0
 18 43  1  0
 21 44  1  0
 24 45  1  0
 25 46  1  0
 25 47  1  0
 25 48  1  0
 31 49  1  0
 31 50  1  0
M  END
>  <Ligand ID>  (1) 
LIG0004683

>  <Ligand>  (1) 
SCHEMBL3342942

>  <SMILES>  (1) 
CNc1ccc(cc1)c1c(C#N)c(SCc2ccnc(c2)C(=O)NC)nc(c1C#N)N

>  <CID>  (1) 
68604883.0

>  <ChEMBL ID>  (1) 
nan

>  <InChiKey>  (1) 
NTAVNMNECDTIHC-UHFFFAOYSA-N

>  <InChi>  (1) 
InChI=1S/C22H19N7OS/c1-26-15-5-3-14(4-6-15)19-16(10-23)20(25)29-22(17(19)11-24)31-12-13-7-8-28-18(9-13)21(30)27-2/h3-9,26H,12H2,1-2H3,(H2,25,29)(H,27,30)

>  <IUPAC Name>  (1) 
4-[[6-amino-3,5-dicyano-4-[4-(methylamino)phenyl]pyridin-2-yl]sulfanylmethyl]-N-methylpyridine-2-carboxamide

$$$$
