
     RDKit          3D

 47 48  0  0  0  0  0  0  0  0999 V2000
    0.0072    0.2946    1.0701 C   0  0  0  0  0  0  0  0  0  0  0  0
   -0.2668   -1.1111    0.6892 C   0  0  2  0  0  0  0  0  0  0  0  0
    0.4294   -1.3755   -0.6616 C   0  0  0  0  0  0  0  0  0  0  0  0
    1.8996   -1.1629   -0.5080 C   0  0  0  0  0  0  0  0  0  0  0  0
    2.5118    0.0511   -0.7193 C   0  0  0  0  0  0  0  0  0  0  0  0
    3.8842    0.1141   -0.5399 C   0  0  0  0  0  0  0  0  0  0  0  0
    4.6479   -0.9637   -0.1664 C   0  0  0  0  0  0  0  0  0  0  0  0
    3.9877   -2.1612    0.0336 C   0  0  0  0  0  0  0  0  0  0  0  0
    2.6307   -2.2868   -0.1284 C   0  0  0  0  0  0  0  0  0  0  0  0
    6.0087   -0.9503    0.0251 O   0  0  0  0  0  0  0  0  0  0  0  0
    6.8289    0.1794   -0.1205 C   0  0  0  0  0  0  0  0  0  0  0  0
    6.5106    1.2878    0.7969 C   0  0  0  0  0  0  0  0  0  0  0  0
    5.6174    1.2748    1.6705 O   0  0  0  0  0  0  0  0  0  0  0  0
    7.2659    2.4531    0.6867 O   0  0  0  0  0  0  0  0  0  0  0  0
   -1.5469   -1.6414    0.8009 N   0  0  0  0  0  0  0  0  0  0  0  0
   -2.6567   -1.1501    0.1066 C   0  0  0  0  0  0  0  0  0  0  0  0
   -3.0991    0.1988    0.5736 C   0  0  1  0  0  0  0  0  0  0  0  0
   -4.3755    0.6537   -0.0599 C   0  0  0  0  0  0  0  0  0  0  0  0
   -4.8725    0.1246   -1.2250 C   0  0  0  0  0  0  0  0  0  0  0  0
   -6.0748    0.6208   -1.7333 C   0  0  0  0  0  0  0  0  0  0  0  0
   -6.7786    1.6229   -1.1048 C   0  0  0  0  0  0  0  0  0  0  0  0
   -6.2799    2.1578    0.0693 C   0  0  0  0  0  0  0  0  0  0  0  0
   -5.0930    1.6593    0.5597 C   0  0  0  0  0  0  0  0  0  0  0  0
   -7.1415    3.4252    0.8927 Cl  0  0  0  0  0  0  0  0  0  0  0  0
   -3.3914    0.0398    1.9552 O   0  0  0  0  0  0  0  0  0  0  0  0
    1.0925    0.4246    1.3949 H   0  0  0  0  0  0  0  0  0  0  0  0
   -0.0820    0.9966    0.2193 H   0  0  0  0  0  0  0  0  0  0  0  0
   -0.5646    0.6823    1.9159 H   0  0  0  0  0  0  0  0  0  0  0  0
    0.3895   -1.7318    1.4031 H   0  0  0  0  0  0  0  0  0  0  0  0
    0.0823   -0.6529   -1.4287 H   0  0  0  0  0  0  0  0  0  0  0  0
    0.2390   -2.3995   -1.0078 H   0  0  0  0  0  0  0  0  0  0  0  0
    1.9487    0.8995   -1.0097 H   0  0  0  0  0  0  0  0  0  0  0  0
    4.3551    1.0697   -0.7167 H   0  0  0  0  0  0  0  0  0  0  0  0
    4.5688   -3.0471    0.3333 H   0  0  0  0  0  0  0  0  0  0  0  0
    2.1467   -3.2377    0.0370 H   0  0  0  0  0  0  0  0  0  0  0  0
    7.9024   -0.0874    0.0188 H   0  0  0  0  0  0  0  0  0  0  0  0
    6.6782    0.5724   -1.1695 H   0  0  0  0  0  0  0  0  0  0  0  0
    6.9711    3.3531    1.0465 H   0  0  0  0  0  0  0  0  0  0  0  0
   -1.5125   -2.6753    0.9656 H   0  0  0  0  0  0  0  0  0  0  0  0
   -2.5815   -1.2162   -1.0052 H   0  0  0  0  0  0  0  0  0  0  0  0
   -3.5276   -1.8384    0.3370 H   0  0  0  0  0  0  0  0  0  0  0  0
   -2.4058    1.0199    0.4736 H   0  0  0  0  0  0  0  0  0  0  0  0
   -4.3644   -0.6508   -1.7456 H   0  0  0  0  0  0  0  0  0  0  0  0
   -6.4820    0.2247   -2.6374 H   0  0  0  0  0  0  0  0  0  0  0  0
   -7.7110    2.0170   -1.4870 H   0  0  0  0  0  0  0  0  0  0  0  0
   -4.6940    2.0735    1.4817 H   0  0  0  0  0  0  0  0  0  0  0  0
   -3.1024    0.8490    2.4309 H   0  0  0  0  0  0  0  0  0  0  0  0
  1  2  1  0
  2  3  1  0
  3  4  1  0
  4  5  2  0
  5  6  1  0
  6  7  2  0
  7  8  1  0
  8  9  2  0
  7 10  1  0
 10 11  1  0
 11 12  1  0
 12 13  2  0
 12 14  1  0
  2 15  1  0
 15 16  1  0
 16 17  1  0
 17 18  1  0
 18 19  2  0
 19 20  1  0
 20 21  2  0
 21 22  1  0
 22 23  2  0
 22 24  1  0
 17 25  1  0
  9  4  1  0
 23 18  1  0
  1 26  1  0
  1 27  1  0
  1 28  1  0
  2 29  1  1
  3 30  1  0
  3 31  1  0
  5 32  1  0
  6 33  1  0
  8 34  1  0
  9 35  1  0
 11 36  1  0
 11 37  1  0
 14 38  1  0
 15 39  1  0
 16 40  1  0
 16 41  1  0
 17 42  1  1
 19 43  1  0
 20 44  1  0
 21 45  1  0
 23 46  1  0
 25 47  1  0
M  END
>  <Ligand ID>  (1) 
LIG0001109

>  <Ligand>  (1) 
BRL 37344

>  <SMILES>  (1) 
C[C@H](Cc1ccc(cc1)OCC(=O)O)NC[C@@H](c1cccc(c1)Cl)O

>  <CID>  (1) 
9841972.0

>  <ChEMBL ID>  (1) 
nan

>  <InChiKey>  (1) 
ZGGNJJJYUVRADP-ACJLOTCBSA-N

>  <InChi>  (1) 
InChI=1S/C19H22ClNO4/c1-13(21-11-18(22)15-3-2-4-16(20)10-15)9-14-5-7-17(8-6-14)25-12-19(23)24/h2-8,10,13,18,21-22H,9,11-12H2,1H3,(H,23,24)/t13-,18+/m1/s1

>  <IUPAC Name>  (1) 
2-[4-[(2R)-2-[[(2R)-2-(3-chlorophenyl)-2-hydroxyethyl]amino]propyl]phenoxy]acetic acid

$$$$
