
     RDKit          3D

136138  0  0  0  0  0  0  0  0999 V2000
    9.2916    3.1511    3.5578 N   0  0  0  0  0  0  0  0  0  0  0  0
    8.2731    3.2080    2.5024 C   0  0  0  0  0  0  0  0  0  0  0  0
    6.9050    3.0867    3.0530 C   0  0  0  0  0  0  0  0  0  0  0  0
    5.7625    3.1917    2.1242 C   0  0  0  0  0  0  0  0  0  0  0  0
    5.6347    2.2442    1.0038 C   0  0  1  0  0  0  0  0  0  0  0  0
    6.7181    2.3178    0.0046 C   0  0  0  0  0  0  0  0  0  0  0  0
    7.4501    1.3579   -0.3344 O   0  0  0  0  0  0  0  0  0  0  0  0
    6.9481    3.5605   -0.6366 N   0  0  0  0  0  0  0  0  0  0  0  0
    7.8961    3.8485   -1.6556 C   0  0  0  0  0  0  0  0  0  0  0  0
    9.3134    3.6574   -1.4138 C   0  0  0  0  0  0  0  0  0  0  0  0
   10.0994    3.9437   -2.4022 O   0  0  0  0  0  0  0  0  0  0  0  0
    9.9706    3.2050   -0.2588 N   0  0  0  0  0  0  0  0  0  0  0  0
    5.6374    0.8703    1.5022 N   0  0  0  0  0  0  0  0  0  0  0  0
    4.5409   -0.0282    1.1329 C   0  0  0  0  0  0  0  0  0  0  0  0
    3.6823    0.4851    0.4064 O   0  0  0  0  0  0  0  0  0  0  0  0
    4.6361   -1.3692    1.6704 C   0  0  2  0  0  0  0  0  0  0  0  0
    6.0672   -1.9351    1.4342 C   0  0  0  0  0  0  0  0  0  0  0  0
    5.8918   -3.4356    1.4579 C   0  0  0  0  0  0  0  0  0  0  0  0
    4.4568   -3.6357    1.8717 C   0  0  0  0  0  0  0  0  0  0  0  0
    3.8335   -2.4236    1.1844 N   0  0  0  0  0  0  0  0  0  0  0  0
    2.7626   -2.6773    0.3400 C   0  0  0  0  0  0  0  0  0  0  0  0
    2.4986   -3.9638    0.2102 O   0  0  0  0  0  0  0  0  0  0  0  0
    1.8609   -1.8357   -0.4394 C   0  0  2  0  0  0  0  0  0  0  0  0
    0.9106   -1.1717    0.5384 C   0  0  0  0  0  0  0  0  0  0  0  0
   -0.4098   -0.2202   -0.2263 S   0  0  0  0  0  0  0  0  0  0  0  0
    0.3343    1.3345   -1.3917 S   0  0  0  0  0  0  0  0  0  0  0  0
    0.5278    2.8486   -0.4857 C   0  0  0  0  0  0  0  0  0  0  0  0
   -0.8096    3.4245   -0.0819 C   0  0  2  0  0  0  0  0  0  0  0  0
   -0.5256    4.7688    0.5320 N   0  0  0  0  0  0  0  0  0  0  0  0
   -1.5033    2.7198    0.9959 C   0  0  0  0  0  0  0  0  0  0  0  0
   -1.1637    2.9531    2.1692 O   0  0  0  0  0  0  0  0  0  0  0  0
   -2.5775    1.7616    0.8623 N   0  0  0  0  0  0  0  0  0  0  0  0
   -3.0762    1.2200    2.0929 C   0  0  1  0  0  0  0  0  0  0  0  0
   -4.1067    2.2177    2.6365 C   0  0  0  0  0  0  0  0  0  0  0  0
   -5.2953    2.4483    1.7912 C   0  0  0  0  0  0  0  0  0  0  0  0
   -5.0850    2.9940    0.4264 C   0  0  0  0  0  0  0  0  0  0  0  0
   -6.2615    3.8929   -0.0059 C   0  0  0  0  0  0  0  0  0  0  0  0
   -6.3295    5.1640    0.7968 C   0  0  0  0  0  0  0  0  0  0  0  0
   -5.7422    4.8329    2.1621 C   0  0  0  0  0  0  0  0  0  0  0  0
   -6.2554    3.4332    2.4964 C   0  0  0  0  0  0  0  0  0  0  0  0
   -3.7028   -0.1023    2.0686 C   0  0  0  0  0  0  0  0  0  0  0  0
   -3.9438   -0.6354    3.1784 O   0  0  0  0  0  0  0  0  0  0  0  0
   -4.0892   -0.8781    0.9450 N   0  0  0  0  0  0  0  0  0  0  0  0
   -4.6894   -2.2227    1.2036 C   0  0  2  0  0  0  0  0  0  0  0  0
   -4.0279   -3.2166    0.3658 C   0  0  0  0  0  0  0  0  0  0  0  0
   -3.8741   -4.4088    0.6965 O   0  0  0  0  0  0  0  0  0  0  0  0
   -3.4893   -2.9273   -0.9474 N   0  0  0  0  0  0  0  0  0  0  0  0
   -2.7343   -3.9599   -1.6785 C   0  0  2  0  0  0  0  0  0  0  0  0
   -1.6380   -3.3658   -2.4272 C   0  0  0  0  0  0  0  0  0  0  0  0
   -1.5697   -2.1315   -2.5292 O   0  0  0  0  0  0  0  0  0  0  0  0
   -0.5831   -4.0791   -3.0840 N   0  0  0  0  0  0  0  0  0  0  0  0
    0.4682   -3.3575   -3.7697 C   0  0  2  0  0  0  0  0  0  0  0  0
    1.2244   -2.6050   -2.7465 C   0  0  0  0  0  0  0  0  0  0  0  0
    2.1167   -1.8348   -3.1229 O   0  0  0  0  0  0  0  0  0  0  0  0
    1.0293   -2.6798   -1.3360 N   0  0  0  0  0  0  0  0  0  0  0  0
   -0.0451   -2.4492   -4.8633 C   0  0  0  0  0  0  0  0  0  0  0  0
   -0.7957   -3.1153   -5.9224 C   0  0  0  0  0  0  0  0  0  0  0  0
   -1.2384   -2.3908   -6.8804 O   0  0  0  0  0  0  0  0  0  0  0  0
   -1.0817   -4.5010   -5.9910 N   0  0  0  0  0  0  0  0  0  0  0  0
   -3.6198   -4.7786   -2.5944 C   0  0  0  0  0  0  0  0  0  0  0  0
   -4.3152   -4.0161   -3.6257 C   0  0  0  0  0  0  0  0  0  0  0  0
   -5.0735   -4.6663   -4.4219 O   0  0  0  0  0  0  0  0  0  0  0  0
   -4.2388   -2.6268   -3.8369 N   0  0  0  0  0  0  0  0  0  0  0  0
   -6.1757   -2.0935    1.0779 C   0  0  2  0  0  0  0  0  0  0  0  0
   -6.9650   -3.3088    1.2905 C   0  0  0  0  0  0  0  0  0  0  0  0
   -6.7457   -4.4551    0.3442 C   0  0  0  0  0  0  0  0  0  0  0  0
   -6.5849   -1.4396   -0.2291 C   0  0  0  0  0  0  0  0  0  0  0  0
   10.2239    2.8551    3.1815 H   0  0  0  0  0  0  0  0  0  0  0  0
    8.9505    2.5315    4.3095 H   0  0  0  0  0  0  0  0  0  0  0  0
    8.4636    4.1043    1.9058 H   0  0  0  0  0  0  0  0  0  0  0  0
    8.5212    2.3167    1.8561 H   0  0  0  0  0  0  0  0  0  0  0  0
    6.7903    3.9107    3.8356 H   0  0  0  0  0  0  0  0  0  0  0  0
    6.8117    2.1545    3.7134 H   0  0  0  0  0  0  0  0  0  0  0  0
    5.7596    4.2770    1.7429 H   0  0  0  0  0  0  0  0  0  0  0  0
    4.7896    3.1851    2.7358 H   0  0  0  0  0  0  0  0  0  0  0  0
    4.6371    2.4307    0.4693 H   0  0  0  0  0  0  0  0  0  0  0  0
    6.3373    4.3598   -0.3105 H   0  0  0  0  0  0  0  0  0  0  0  0
    7.6475    3.1622   -2.5444 H   0  0  0  0  0  0  0  0  0  0  0  0
    7.7273    4.9162   -2.0428 H   0  0  0  0  0  0  0  0  0  0  0  0
   10.3556    3.8651    0.4524 H   0  0  0  0  0  0  0  0  0  0  0  0
   10.0681    2.1790   -0.1257 H   0  0  0  0  0  0  0  0  0  0  0  0
    6.4082    0.5518    2.1066 H   0  0  0  0  0  0  0  0  0  0  0  0
    4.5741   -1.3185    2.8214 H   0  0  0  0  0  0  0  0  0  0  0  0
    6.4000   -1.5965    0.4301 H   0  0  0  0  0  0  0  0  0  0  0  0
    6.7504   -1.6103    2.2403 H   0  0  0  0  0  0  0  0  0  0  0  0
    6.5891   -3.9360    2.1904 H   0  0  0  0  0  0  0  0  0  0  0  0
    6.0391   -3.9046    0.4535 H   0  0  0  0  0  0  0  0  0  0  0  0
    4.0180   -4.5539    1.5130 H   0  0  0  0  0  0  0  0  0  0  0  0
    4.3441   -3.4277    2.9471 H   0  0  0  0  0  0  0  0  0  0  0  0
    2.3450   -1.1293   -1.1043 H   0  0  0  0  0  0  0  0  0  0  0  0
    0.3538   -1.9990    1.1164 H   0  0  0  0  0  0  0  0  0  0  0  0
    1.4176   -0.6129    1.3443 H   0  0  0  0  0  0  0  0  0  0  0  0
    1.0301    3.6460   -1.0907 H   0  0  0  0  0  0  0  0  0  0  0  0
    1.1767    2.7522    0.4192 H   0  0  0  0  0  0  0  0  0  0  0  0
   -1.4277    3.5966   -0.9509 H   0  0  0  0  0  0  0  0  0  0  0  0
   -0.1029    5.3888   -0.1956 H   0  0  0  0  0  0  0  0  0  0  0  0
   -1.4219    5.1502    0.9039 H   0  0  0  0  0  0  0  0  0  0  0  0
   -2.8527    1.5734   -0.0865 H   0  0  0  0  0  0  0  0  0  0  0  0
   -2.2773    1.2520    2.9042 H   0  0  0  0  0  0  0  0  0  0  0  0
   -4.4343    1.7856    3.6011 H   0  0  0  0  0  0  0  0  0  0  0  0
   -3.5770    3.2003    2.8005 H   0  0  0  0  0  0  0  0  0  0  0  0
   -5.9105    1.5085    1.7359 H   0  0  0  0  0  0  0  0  0  0  0  0
   -4.1409    3.5450    0.3644 H   0  0  0  0  0  0  0  0  0  0  0  0
   -5.0893    2.1988   -0.3803 H   0  0  0  0  0  0  0  0  0  0  0  0
   -6.0245    4.1766   -1.0490 H   0  0  0  0  0  0  0  0  0  0  0  0
   -7.1599    3.2709    0.0325 H   0  0  0  0  0  0  0  0  0  0  0  0
   -7.4078    5.4126    0.8926 H   0  0  0  0  0  0  0  0  0  0  0  0
   -5.7641    5.9755    0.3222 H   0  0  0  0  0  0  0  0  0  0  0  0
   -6.0587    5.5874    2.9010 H   0  0  0  0  0  0  0  0  0  0  0  0
   -4.6427    4.7755    2.0393 H   0  0  0  0  0  0  0  0  0  0  0  0
   -7.2853    3.2574    2.1355 H   0  0  0  0  0  0  0  0  0  0  0  0
   -6.2081    3.2988    3.5823 H   0  0  0  0  0  0  0  0  0  0  0  0
   -3.9410   -0.4847    0.0371 H   0  0  0  0  0  0  0  0  0  0  0  0
   -4.5022   -2.4823    2.2643 H   0  0  0  0  0  0  0  0  0  0  0  0
   -3.6838   -1.9946   -1.2880 H   0  0  0  0  0  0  0  0  0  0  0  0
   -2.3532   -4.6907   -0.9386 H   0  0  0  0  0  0  0  0  0  0  0  0
   -0.6633   -5.0973   -3.0071 H   0  0  0  0  0  0  0  0  0  0  0  0
    1.2088   -4.1009   -4.2017 H   0  0  0  0  0  0  0  0  0  0  0  0
    0.3259   -3.3266   -1.0076 H   0  0  0  0  0  0  0  0  0  0  0  0
    0.9003   -2.0546   -5.3691 H   0  0  0  0  0  0  0  0  0  0  0  0
   -0.5021   -1.5532   -4.4360 H   0  0  0  0  0  0  0  0  0  0  0  0
   -0.4001   -5.1337   -5.4976 H   0  0  0  0  0  0  0  0  0  0  0  0
   -1.9192   -4.8435   -6.5010 H   0  0  0  0  0  0  0  0  0  0  0  0
   -2.9095   -5.4800   -3.1151 H   0  0  0  0  0  0  0  0  0  0  0  0
   -4.2797   -5.4814   -2.0071 H   0  0  0  0  0  0  0  0  0  0  0  0
   -3.5301   -2.1415   -4.4281 H   0  0  0  0  0  0  0  0  0  0  0  0
   -4.9496   -1.9982   -3.3711 H   0  0  0  0  0  0  0  0  0  0  0  0
   -6.4824   -1.3593    1.8738 H   0  0  0  0  0  0  0  0  0  0  0  0
   -8.0663   -3.0338    1.2025 H   0  0  0  0  0  0  0  0  0  0  0  0
   -6.9313   -3.6729    2.3703 H   0  0  0  0  0  0  0  0  0  0  0  0
   -6.2090   -4.1959   -0.5788 H   0  0  0  0  0  0  0  0  0  0  0  0
   -6.3561   -5.3179    0.9077 H   0  0  0  0  0  0  0  0  0  0  0  0
   -7.7556   -4.8502   -0.0380 H   0  0  0  0  0  0  0  0  0  0  0  0
   -6.4614   -2.1935   -1.0408 H   0  0  0  0  0  0  0  0  0  0  0  0
   -5.9965   -0.5782   -0.5198 H   0  0  0  0  0  0  0  0  0  0  0  0
   -7.6664   -1.1981   -0.2178 H   0  0  0  0  0  0  0  0  0  0  0  0
  1  2  1  0
  2  3  1  0
  3  4  1  0
  4  5  1  0
  5  6  1  0
  6  7  2  0
  6  8  1  0
  8  9  1  0
  9 10  1  0
 10 11  2  0
 10 12  1  0
  5 13  1  0
 13 14  1  0
 14 15  2  0
 14 16  1  0
 16 17  1  0
 17 18  1  0
 18 19  1  0
 19 20  1  0
 20 21  1  0
 21 22  2  0
 21 23  1  0
 23 24  1  0
 24 25  1  0
 25 26  1  0
 26 27  1  0
 27 28  1  0
 28 29  1  0
 28 30  1  0
 30 31  2  0
 30 32  1  0
 32 33  1  0
 33 34  1  0
 34 35  1  0
 35 36  1  0
 36 37  1  0
 37 38  1  0
 38 39  1  0
 39 40  1  0
 33 41  1  0
 41 42  2  0
 41 43  1  0
 43 44  1  0
 44 45  1  0
 45 46  2  0
 45 47  1  0
 47 48  1  0
 48 49  1  0
 49 50  2  0
 49 51  1  0
 51 52  1  0
 52 53  1  0
 53 54  2  0
 53 55  1  0
 52 56  1  0
 56 57  1  0
 57 58  2  0
 57 59  1  0
 48 60  1  0
 60 61  1  0
 61 62  2  0
 61 63  1  0
 44 64  1  0
 64 65  1  0
 65 66  1  0
 64 67  1  0
 20 16  1  0
 55 23  1  0
 40 35  1  0
  1 68  1  0
  1 69  1  0
  2 70  1  0
  2 71  1  0
  3 72  1  0
  3 73  1  0
  4 74  1  0
  4 75  1  0
  5 76  1  6
  8 77  1  0
  9 78  1  0
  9 79  1  0
 12 80  1  0
 12 81  1  0
 13 82  1  0
 16 83  1  1
 17 84  1  0
 17 85  1  0
 18 86  1  0
 18 87  1  0
 19 88  1  0
 19 89  1  0
 23 90  1  6
 24 91  1  0
 24 92  1  0
 27 93  1  0
 27 94  1  0
 28 95  1  6
 29 96  1  0
 29 97  1  0
 32 98  1  0
 33 99  1  1
 34100  1  0
 34101  1  0
 35102  1  0
 36103  1  0
 36104  1  0
 37105  1  0
 37106  1  0
 38107  1  0
 38108  1  0
 39109  1  0
 39110  1  0
 40111  1  0
 40112  1  0
 43113  1  0
 44114  1  1
 47115  1  0
 48116  1  1
 51117  1  0
 52118  1  6
 55119  1  0
 56120  1  0
 56121  1  0
 59122  1  0
 59123  1  0
 60124  1  0
 60125  1  0
 63126  1  0
 63127  1  0
 64128  1  1
 65129  1  0
 65130  1  0
 66131  1  0
 66132  1  0
 66133  1  0
 67134  1  0
 67135  1  0
 67136  1  0
M  END
>  <Ligand ID>  (1) 
LIG0001623

>  <Ligand>  (1) 
CHEMBL1817771

>  <SMILES>  (1) 
NCCC[C@@H](C(=O)NCC(=O)N)NC(=O)[C@@H]1CCCN1C(=O)[C@@H]1CSSC[C@H](N)C(=O)N[C@@H](CC2CCCCC2)C(=O)N[C@H](C(=O)N[C@H](C(=O)N[C@H](C(=O)N1)CC(=O)N)CC(=O)N)[C@H](CC)C

>  <CID>  (1) 
53362966.0

>  <ChEMBL ID>  (1) 
nan

>  <InChiKey>  (1) 
UAMONDWMVGRRHZ-VIZGXHJBSA-N

>  <InChi>  (1) 
InChI=1S/C41H69N13O11S2/c1-3-21(2)33-40(64)51-27(17-31(45)56)36(60)50-26(16-30(44)55)37(61)52-28(20-67-66-19-23(43)34(58)49-25(38(62)53-33)15-22-9-5-4-6-10-22)41(65)54-14-8-12-29(54)39(63)48-24(11-7-13-42)35(59)47-18-32(46)57/h21-29,33H,3-20,42-43H2,1-2H3,(H2,44,55)(H2,45,56)(H2,46,57)(H,47,59)(H,48,63)(H,49,58)(H,50,60)(H,51,64)(H,52,61)(H,53,62)/t21-,23-,24-,25-,26-,27-,28-,29-,33-/m0/s1

>  <IUPAC Name>  (1) 
(2S)-N-[(2S)-5-amino-1-[(2-amino-2-oxoethyl)amino]-1-oxopentan-2-yl]-1-[(4R,7S,10S,13S,16S,19R)-19-amino-7,10-bis(2-amino-2-oxoethyl)-13-[(2S)-butan-2-yl]-16-(cyclohexylmethyl)-6,9,12,15,18-pentaoxo-1,2-dithia-5,8,11,14,17-pentazacycloicosane-4-carbonyl]pyrrolidine-2-carboxamide

$$$$
