
     RDKit          3D

 60 64  0  0  0  0  0  0  0  0999 V2000
   -3.5839   -3.7371    3.3824 Cl  0  0  0  0  0  0  0  0  0  0  0  0
   -3.2175   -2.3334    2.4040 C   0  0  0  0  0  0  0  0  0  0  0  0
   -2.1382   -1.5472    2.6987 C   0  0  0  0  0  0  0  0  0  0  0  0
   -1.8395   -0.4518    1.9476 C   0  0  0  0  0  0  0  0  0  0  0  0
   -2.6030   -0.0622    0.8419 C   0  0  0  0  0  0  0  0  0  0  0  0
   -3.6837   -0.8591    0.5561 C   0  0  0  0  0  0  0  0  0  0  0  0
   -4.0009   -1.9810    1.3144 C   0  0  0  0  0  0  0  0  0  0  0  0
   -2.2381    1.1497    0.0486 C   0  0  0  0  0  0  0  0  0  0  0  0
   -1.3499    0.8273   -1.0737 C   0  0  0  0  0  0  0  0  0  0  0  0
   -1.4236    1.4231   -2.3236 C   0  0  0  0  0  0  0  0  0  0  0  0
   -0.5814    1.0875   -3.3647 C   0  0  0  0  0  0  0  0  0  0  0  0
    0.3697    0.1185   -3.1420 C   0  0  0  0  0  0  0  0  0  0  0  0
    0.4930   -0.5096   -1.9221 C   0  0  0  0  0  0  0  0  0  0  0  0
   -0.3723   -0.1372   -0.9183 C   0  0  0  0  0  0  0  0  0  0  0  0
    1.4462   -1.4794   -1.7015 C   0  0  0  0  0  0  0  0  0  0  0  0
    1.6122   -2.1608   -0.4704 N   0  0  0  0  0  0  0  0  0  0  0  0
    2.6412   -3.1725   -0.3031 C   0  0  0  0  0  0  0  0  0  0  0  0
    4.0194   -2.6022   -0.4505 C   0  0  0  0  0  0  0  0  0  0  0  0
    4.2658   -1.5435    0.5667 C   0  0  0  0  0  0  0  0  0  0  0  0
    4.7935   -1.9450    1.7797 C   0  0  0  0  0  0  0  0  0  0  0  0
    5.0619   -1.0431    2.7898 C   0  0  0  0  0  0  0  0  0  0  0  0
    4.7793    0.3015    2.5419 C   0  0  0  0  0  0  0  0  0  0  0  0
    4.2558    0.7110    1.3426 C   0  0  0  0  0  0  0  0  0  0  0  0
    3.9971   -0.2098    0.3505 C   0  0  0  0  0  0  0  0  0  0  0  0
    3.9636    2.1182    1.0921 C   0  0  0  0  0  0  0  0  0  0  0  0
    3.4844    2.5156    0.0037 O   0  0  0  0  0  0  0  0  0  0  0  0
    4.2252    3.0549    2.0947 O   0  0  0  0  0  0  0  0  0  0  0  0
    2.2532   -1.7925   -2.7187 N   0  0  0  0  0  0  0  0  0  0  0  0
    2.1616   -1.2025   -3.9169 C   0  0  0  0  0  0  0  0  0  0  0  0
    1.2219   -0.2483   -4.1301 N   0  0  0  0  0  0  0  0  0  0  0  0
   -3.4375    1.9359   -0.3150 C   0  0  0  0  0  0  0  0  0  0  0  0
   -4.2417    1.6709   -1.3982 C   0  0  0  0  0  0  0  0  0  0  0  0
   -5.3612    2.4316   -1.7082 C   0  0  0  0  0  0  0  0  0  0  0  0
   -5.7118    3.5054   -0.9192 C   0  0  0  0  0  0  0  0  0  0  0  0
   -4.9191    3.7963    0.1800 C   0  0  0  0  0  0  0  0  0  0  0  0
   -3.8072    3.0252    0.4712 C   0  0  0  0  0  0  0  0  0  0  0  0
   -7.1288    4.4465   -1.3351 Cl  0  0  0  0  0  0  0  0  0  0  0  0
   -1.5067   -1.7984    3.5459 H   0  0  0  0  0  0  0  0  0  0  0  0
   -0.9602    0.1376    2.2366 H   0  0  0  0  0  0  0  0  0  0  0  0
   -4.3305   -0.6465   -0.2666 H   0  0  0  0  0  0  0  0  0  0  0  0
   -4.8482   -2.5982    1.0833 H   0  0  0  0  0  0  0  0  0  0  0  0
   -1.6005    1.7712    0.7529 H   0  0  0  0  0  0  0  0  0  0  0  0
   -2.1481    2.1895   -2.5213 H   0  0  0  0  0  0  0  0  0  0  0  0
   -0.6580    1.5639   -4.3263 H   0  0  0  0  0  0  0  0  0  0  0  0
   -0.3094   -0.6024    0.0499 H   0  0  0  0  0  0  0  0  0  0  0  0
    1.0205   -1.9873    0.3825 H   0  0  0  0  0  0  0  0  0  0  0  0
    2.4970   -3.7704    0.5948 H   0  0  0  0  0  0  0  0  0  0  0  0
    2.5097   -3.8792   -1.1656 H   0  0  0  0  0  0  0  0  0  0  0  0
    4.7249   -3.4559   -0.2741 H   0  0  0  0  0  0  0  0  0  0  0  0
    4.1886   -2.2625   -1.4699 H   0  0  0  0  0  0  0  0  0  0  0  0
    5.0070   -2.9986    1.9538 H   0  0  0  0  0  0  0  0  0  0  0  0
    5.4764   -1.3675    3.7393 H   0  0  0  0  0  0  0  0  0  0  0  0
    4.9737    1.0481    3.3061 H   0  0  0  0  0  0  0  0  0  0  0  0
    3.5873    0.1135   -0.5907 H   0  0  0  0  0  0  0  0  0  0  0  0
    4.5178    3.9994    1.8360 H   0  0  0  0  0  0  0  0  0  0  0  0
    2.8500   -1.5067   -4.6967 H   0  0  0  0  0  0  0  0  0  0  0  0
   -4.0326    0.8482   -2.0627 H   0  0  0  0  0  0  0  0  0  0  0  0
   -5.9659    2.1765   -2.5819 H   0  0  0  0  0  0  0  0  0  0  0  0
   -5.1911    4.6488    0.8127 H   0  0  0  0  0  0  0  0  0  0  0  0
   -3.2075    3.2759    1.3352 H   0  0  0  0  0  0  0  0  0  0  0  0
  1  2  1  0
  2  3  2  0
  3  4  1  0
  4  5  2  0
  5  6  1  0
  6  7  2  0
  5  8  1  0
  8  9  1  0
  9 10  2  0
 10 11  1  0
 11 12  2  0
 12 13  1  0
 13 14  2  0
 13 15  1  0
 15 16  1  0
 16 17  1  0
 17 18  1  0
 18 19  1  0
 19 20  2  0
 20 21  1  0
 21 22  2  0
 22 23  1  0
 23 24  2  0
 23 25  1  0
 25 26  2  0
 25 27  1  0
 15 28  2  0
 28 29  1  0
 29 30  2  0
  8 31  1  0
 31 32  2  0
 32 33  1  0
 33 34  2  0
 34 35  1  0
 35 36  2  0
 34 37  1  0
  7  2  1  0
 14  9  1  0
 24 19  1  0
 36 31  1  0
 30 12  1  0
  3 38  1  0
  4 39  1  0
  6 40  1  0
  7 41  1  0
  8 42  1  0
 10 43  1  0
 11 44  1  0
 14 45  1  0
 16 46  1  0
 17 47  1  0
 17 48  1  0
 18 49  1  0
 18 50  1  0
 20 51  1  0
 21 52  1  0
 22 53  1  0
 24 54  1  0
 27 55  1  0
 29 56  1  0
 32 57  1  0
 33 58  1  0
 35 59  1  0
 36 60  1  0
M  END
>  <Ligand ID>  (1) 
LIG0005816

>  <Ligand>  (1) 
SCHEMBL17557584

>  <SMILES>  (1) 
Clc1ccc(cc1)C(c1ccc2c(c1)c(NCCc1cccc(c1)C(=O)O)ncn2)c1ccc(cc1)Cl

>  <CID>  (1) 
118916070.0

>  <ChEMBL ID>  (1) 
nan

>  <InChiKey>  (1) 
UEZHDFWPCZJWFI-UHFFFAOYSA-N

>  <InChi>  (1) 
InChI=1S/C30H23Cl2N3O2/c31-24-9-4-20(5-10-24)28(21-6-11-25(32)12-7-21)22-8-13-27-26(17-22)29(35-18-34-27)33-15-14-19-2-1-3-23(16-19)30(36)37/h1-13,16-18,28H,14-15H2,(H,36,37)(H,33,34,35)

>  <IUPAC Name>  (1) 
3-[2-[[6-[bis(4-chlorophenyl)methyl]quinazolin-4-yl]amino]ethyl]benzoic acid

$$$$
