
     RDKit          3D

 51 52  0  0  0  0  0  0  0  0999 V2000
   -5.2230    3.8430    0.2101 C   0  0  0  0  0  0  0  0  0  0  0  0
   -4.0660    3.4656   -0.5014 O   0  0  0  0  0  0  0  0  0  0  0  0
   -3.6194    2.1545   -0.4623 C   0  0  0  0  0  0  0  0  0  0  0  0
   -4.3184    1.2480    0.2729 C   0  0  0  0  0  0  0  0  0  0  0  0
   -3.8836   -0.0582    0.3189 C   0  0  0  0  0  0  0  0  0  0  0  0
   -2.7546   -0.4602   -0.3663 C   0  0  0  0  0  0  0  0  0  0  0  0
   -2.0472    0.4604   -1.1112 C   0  0  0  0  0  0  0  0  0  0  0  0
   -2.4865    1.7881   -1.1599 C   0  0  0  0  0  0  0  0  0  0  0  0
   -2.3714   -1.8885   -0.2515 C   0  0  0  0  0  0  0  0  0  0  0  0
   -2.4417   -2.3735    1.0979 N   0  0  0  0  0  0  0  0  0  0  0  0
   -2.3696   -3.8022    1.0775 C   0  0  0  0  0  0  0  0  0  0  0  0
   -1.5026   -1.7672    2.0083 C   0  0  0  0  0  0  0  0  0  0  0  0
   -1.1316   -2.2588   -0.9742 C   0  0  0  0  0  0  0  0  0  0  0  0
    0.0707   -1.5879   -0.5890 N   0  0  0  0  0  0  0  0  0  0  0  0
    1.2806   -1.9431   -1.2875 C   0  0  0  0  0  0  0  0  0  0  0  0
    1.1791   -2.8229   -2.1879 O   0  0  0  0  0  0  0  0  0  0  0  0
    2.5460   -1.2883   -0.9360 C   0  0  0  0  0  0  0  0  0  0  0  0
    2.4089   -0.0743    0.3805 S   0  0  0  0  0  0  0  0  0  0  0  0
    4.0204    0.6377    0.6995 C   0  0  0  0  0  0  0  0  0  0  0  0
    4.8084   -0.0048    1.6557 C   0  0  0  0  0  0  0  0  0  0  0  0
    6.0573    0.4878    1.9508 C   0  0  0  0  0  0  0  0  0  0  0  0
    6.5107    1.6227    1.2856 C   0  0  0  0  0  0  0  0  0  0  0  0
    5.7262    2.2468    0.3462 C   0  0  0  0  0  0  0  0  0  0  0  0
    4.4601    1.7609    0.0362 C   0  0  0  0  0  0  0  0  0  0  0  0
    3.5930    2.4081   -0.9677 C   0  0  0  0  0  0  0  0  0  0  0  0
   -5.5087    4.8807   -0.0512 H   0  0  0  0  0  0  0  0  0  0  0  0
   -6.1001    3.2060   -0.0018 H   0  0  0  0  0  0  0  0  0  0  0  0
   -4.9513    3.8554    1.2887 H   0  0  0  0  0  0  0  0  0  0  0  0
   -5.2148    1.5467    0.8225 H   0  0  0  0  0  0  0  0  0  0  0  0
   -4.4667   -0.7705    0.9204 H   0  0  0  0  0  0  0  0  0  0  0  0
   -1.1647    0.1470   -1.6473 H   0  0  0  0  0  0  0  0  0  0  0  0
   -1.9197    2.5216   -1.7556 H   0  0  0  0  0  0  0  0  0  0  0  0
   -3.1989   -2.4475   -0.7799 H   0  0  0  0  0  0  0  0  0  0  0  0
   -1.3258   -4.1724    1.0661 H   0  0  0  0  0  0  0  0  0  0  0  0
   -2.9898   -4.2268    1.8995 H   0  0  0  0  0  0  0  0  0  0  0  0
   -2.8285   -4.1858    0.1323 H   0  0  0  0  0  0  0  0  0  0  0  0
   -1.4636   -0.6850    1.9183 H   0  0  0  0  0  0  0  0  0  0  0  0
   -1.8768   -1.9776    3.0485 H   0  0  0  0  0  0  0  0  0  0  0  0
   -0.5423   -2.2977    1.9470 H   0  0  0  0  0  0  0  0  0  0  0  0
   -1.3021   -2.0304   -2.0622 H   0  0  0  0  0  0  0  0  0  0  0  0
   -1.0429   -3.3573   -0.9329 H   0  0  0  0  0  0  0  0  0  0  0  0
    0.1534   -0.8611    0.1551 H   0  0  0  0  0  0  0  0  0  0  0  0
    3.2428   -2.0798   -0.5822 H   0  0  0  0  0  0  0  0  0  0  0  0
    3.0716   -0.8435   -1.8271 H   0  0  0  0  0  0  0  0  0  0  0  0
    4.4572   -0.8902    2.1761 H   0  0  0  0  0  0  0  0  0  0  0  0
    6.6384   -0.0273    2.6893 H   0  0  0  0  0  0  0  0  0  0  0  0
    7.4997    1.9639    1.5587 H   0  0  0  0  0  0  0  0  0  0  0  0
    6.1133    3.1287   -0.1514 H   0  0  0  0  0  0  0  0  0  0  0  0
    3.4672    1.6971   -1.8070 H   0  0  0  0  0  0  0  0  0  0  0  0
    4.1459    3.2861   -1.4048 H   0  0  0  0  0  0  0  0  0  0  0  0
    2.6613    2.8263   -0.5682 H   0  0  0  0  0  0  0  0  0  0  0  0
  1  2  1  0
  2  3  1  0
  3  4  2  0
  4  5  1  0
  5  6  2  0
  6  7  1  0
  7  8  2  0
  6  9  1  0
  9 10  1  0
 10 11  1  0
 10 12  1  0
  9 13  1  0
 13 14  1  0
 14 15  1  0
 15 16  2  0
 15 17  1  0
 17 18  1  0
 18 19  1  0
 19 20  2  0
 20 21  1  0
 21 22  2  0
 22 23  1  0
 23 24  2  0
 24 25  1  0
  8  3  1  0
 24 19  1  0
  1 26  1  0
  1 27  1  0
  1 28  1  0
  4 29  1  0
  5 30  1  0
  7 31  1  0
  8 32  1  0
  9 33  1  0
 11 34  1  0
 11 35  1  0
 11 36  1  0
 12 37  1  0
 12 38  1  0
 12 39  1  0
 13 40  1  0
 13 41  1  0
 14 42  1  0
 17 43  1  0
 17 44  1  0
 20 45  1  0
 21 46  1  0
 22 47  1  0
 23 48  1  0
 25 49  1  0
 25 50  1  0
 25 51  1  0
M  END
>  <Ligand ID>  (1) 
LIG0003881

>  <Ligand>  (1) 
MLS001172165

>  <SMILES>  (1) 
COc1ccc(cc1)C(N(C)C)CNC(=O)CSc1ccccc1C

>  <CID>  (1) 
4883447.0

>  <ChEMBL ID>  (1) 
nan

>  <InChiKey>  (1) 
LZTIBBXIOUQBGU-UHFFFAOYSA-N

>  <InChi>  (1) 
InChI=1S/C20H26N2O2S/c1-15-7-5-6-8-19(15)25-14-20(23)21-13-18(22(2)3)16-9-11-17(24-4)12-10-16/h5-12,18H,13-14H2,1-4H3,(H,21,23)

>  <IUPAC Name>  (1) 
N-[2-(dimethylamino)-2-(4-methoxyphenyl)ethyl]-2-(2-methylphenyl)sulfanylacetamide

$$$$
