
     RDKit          3D

 38 40  0  0  0  0  0  0  0  0999 V2000
    2.6169   -1.2520   -1.1332 C   0  0  0  0  0  0  0  0  0  0  0  0
    1.5121   -0.3973   -0.4600 C   0  0  2  0  0  0  0  0  0  0  0  0
    2.2492    0.2579    0.6945 C   0  0  0  0  0  0  0  0  0  0  0  0
    3.4876    0.1729    0.9966 N   0  0  0  0  0  0  0  0  0  0  0  0
    3.7921    0.9435    2.1637 C   0  0  0  0  0  0  0  0  0  0  0  0
    2.6151    1.9007    2.2552 C   0  0  0  0  0  0  0  0  0  0  0  0
    1.5732    1.0981    1.6246 N   0  0  0  0  0  0  0  0  0  0  0  0
    0.5136   -1.1404    0.0352 O   0  0  0  0  0  0  0  0  0  0  0  0
   -0.7719   -1.4299   -0.1207 C   0  0  0  0  0  0  0  0  0  0  0  0
   -1.3095   -2.3560    0.8113 C   0  0  0  0  0  0  0  0  0  0  0  0
   -2.6089   -2.7618    0.7888 C   0  0  0  0  0  0  0  0  0  0  0  0
   -3.4744   -2.2821   -0.1573 C   0  0  0  0  0  0  0  0  0  0  0  0
   -2.9904   -1.3861   -1.0734 C   0  0  0  0  0  0  0  0  0  0  0  0
   -1.6539   -0.9539   -1.0683 C   0  0  0  0  0  0  0  0  0  0  0  0
   -1.2833    0.0164   -2.0973 C   0  0  0  0  0  0  0  0  0  0  0  0
   -1.2303    1.4506   -1.6432 C   0  0  0  0  0  0  0  0  0  0  0  0
   -2.5320    2.0370   -1.1003 C   0  0  0  0  0  0  0  0  0  0  0  0
   -1.2961    1.8475   -0.2347 C   0  0  0  0  0  0  0  0  0  0  0  0
    3.3423   -0.5312   -1.5284 H   0  0  0  0  0  0  0  0  0  0  0  0
    2.1539   -1.8428   -1.9345 H   0  0  0  0  0  0  0  0  0  0  0  0
    3.1204   -1.8786   -0.3837 H   0  0  0  0  0  0  0  0  0  0  0  0
    1.3129    0.3868   -1.2048 H   0  0  0  0  0  0  0  0  0  0  0  0
    3.7636    0.2851    3.0587 H   0  0  0  0  0  0  0  0  0  0  0  0
    4.7521    1.4628    2.1082 H   0  0  0  0  0  0  0  0  0  0  0  0
    2.7689    2.8196    1.6820 H   0  0  0  0  0  0  0  0  0  0  0  0
    2.3255    2.0465    3.3130 H   0  0  0  0  0  0  0  0  0  0  0  0
    0.5670    1.1797    1.8613 H   0  0  0  0  0  0  0  0  0  0  0  0
   -0.6740   -2.7737    1.5869 H   0  0  0  0  0  0  0  0  0  0  0  0
   -2.9811   -3.4754    1.5235 H   0  0  0  0  0  0  0  0  0  0  0  0
   -4.4956   -2.5907   -0.1882 H   0  0  0  0  0  0  0  0  0  0  0  0
   -3.6908   -1.0169   -1.8155 H   0  0  0  0  0  0  0  0  0  0  0  0
   -0.3604   -0.2797   -2.6352 H   0  0  0  0  0  0  0  0  0  0  0  0
   -2.0714   -0.0109   -2.9148 H   0  0  0  0  0  0  0  0  0  0  0  0
   -0.6560    2.1272   -2.3082 H   0  0  0  0  0  0  0  0  0  0  0  0
   -2.7790    3.0870   -1.3670 H   0  0  0  0  0  0  0  0  0  0  0  0
   -3.3717    1.3360   -1.0342 H   0  0  0  0  0  0  0  0  0  0  0  0
   -0.7664    2.7625    0.1058 H   0  0  0  0  0  0  0  0  0  0  0  0
   -1.4692    1.1417    0.6001 H   0  0  0  0  0  0  0  0  0  0  0  0
  1  2  1  0
  2  3  1  0
  3  4  2  0
  4  5  1  0
  5  6  1  0
  6  7  1  0
  2  8  1  0
  8  9  1  0
  9 10  2  0
 10 11  1  0
 11 12  2  0
 12 13  1  0
 13 14  2  0
 14 15  1  0
 15 16  1  0
 16 17  1  0
 17 18  1  0
  7  3  1  0
 14  9  1  0
 18 16  1  0
  1 19  1  0
  1 20  1  0
  1 21  1  0
  2 22  1  6
  5 23  1  0
  5 24  1  0
  6 25  1  0
  6 26  1  0
  7 27  1  0
 10 28  1  0
 11 29  1  0
 12 30  1  0
 13 31  1  0
 15 32  1  0
 15 33  1  0
 16 34  1  0
 17 35  1  0
 17 36  1  0
 18 37  1  0
 18 38  1  0
M  END
>  <Ligand ID>  (1) 
LIG0005447

>  <Ligand>  (1) 
CHEMBL2089155

>  <SMILES>  (1) 
C[C@H](C1=NCCN1)Oc1ccccc1CC1CC1

>  <CID>  (1) 
70693375.0

>  <ChEMBL ID>  (1) 
nan

>  <InChiKey>  (1) 
SEKAQUSPSDPIAN-LLVKDONJSA-N

>  <InChi>  (1) 
InChI=1S/C15H20N2O/c1-11(15-16-8-9-17-15)18-14-5-3-2-4-13(14)10-12-6-7-12/h2-5,11-12H,6-10H2,1H3,(H,16,17)/t11-/m1/s1

>  <IUPAC Name>  (1) 
2-[(1R)-1-[2-(cyclopropylmethyl)phenoxy]ethyl]-4,5-dihydro-1H-imidazole

$$$$
