
     RDKit          3D

 58 59  0  0  0  0  0  0  0  0999 V2000
    9.5131    0.1102   -0.9141 C   0  0  0  0  0  0  0  0  0  0  0  0
    8.4038   -0.8686   -0.7108 C   0  0  0  0  0  0  0  0  0  0  0  0
    7.0822   -0.1284   -0.6870 C   0  0  0  0  0  0  0  0  0  0  0  0
    6.0153   -1.1575   -0.4813 C   0  0  0  0  0  0  0  0  0  0  0  0
    6.2943   -2.3720   -0.3650 O   0  0  0  0  0  0  0  0  0  0  0  0
    4.6210   -0.7419   -0.4141 C   0  0  0  0  0  0  0  0  0  0  0  0
    4.2492    0.5807   -0.5352 C   0  0  0  0  0  0  0  0  0  0  0  0
    2.9381    0.9894   -0.4741 C   0  0  0  0  0  0  0  0  0  0  0  0
    1.9606    0.0312   -0.2837 C   0  0  0  0  0  0  0  0  0  0  0  0
    2.3243   -1.3017   -0.1609 C   0  0  0  0  0  0  0  0  0  0  0  0
    3.6371   -1.6886   -0.2246 C   0  0  0  0  0  0  0  0  0  0  0  0
    3.9303   -3.0552   -0.0921 O   0  0  0  0  0  0  0  0  0  0  0  0
    1.2666   -2.3383    0.0451 C   0  0  0  0  0  0  0  0  0  0  0  0
    0.6199    0.3305   -0.2076 O   0  0  0  0  0  0  0  0  0  0  0  0
    0.1762    1.6589   -0.3234 C   0  0  0  0  0  0  0  0  0  0  0  0
   -1.3290    1.7770   -0.2126 C   0  0  0  0  0  0  0  0  0  0  0  0
   -1.7385    1.2496    1.1249 C   0  0  0  0  0  0  0  0  0  0  0  0
   -3.2561    1.3295    1.3285 C   0  0  0  0  0  0  0  0  0  0  0  0
   -3.9417    0.5918    0.3702 O   0  0  0  0  0  0  0  0  0  0  0  0
   -5.2846    0.4203    0.2201 C   0  0  0  0  0  0  0  0  0  0  0  0
   -5.8795   -0.6551    0.8896 C   0  0  0  0  0  0  0  0  0  0  0  0
   -5.0776   -1.4934    1.6718 O   0  0  0  0  0  0  0  0  0  0  0  0
   -5.7427   -2.5677    2.3260 C   0  0  0  0  0  0  0  0  0  0  0  0
   -7.2328   -0.9090    0.7979 C   0  0  0  0  0  0  0  0  0  0  0  0
   -8.0310   -0.0854    0.0273 C   0  0  0  0  0  0  0  0  0  0  0  0
   -7.4551    0.9769   -0.6365 C   0  0  0  0  0  0  0  0  0  0  0  0
   -6.1084    1.2204   -0.5388 C   0  0  0  0  0  0  0  0  0  0  0  0
   -5.5313    2.3479   -1.2553 C   0  0  0  0  0  0  0  0  0  0  0  0
   -4.3061    2.6269   -1.2151 O   0  0  0  0  0  0  0  0  0  0  0  0
   -6.3310    3.1808   -2.0308 O   0  0  0  0  0  0  0  0  0  0  0  0
   10.4550   -0.2186   -0.4318 H   0  0  0  0  0  0  0  0  0  0  0  0
    9.2473    1.1035   -0.4996 H   0  0  0  0  0  0  0  0  0  0  0  0
    9.6888    0.2402   -2.0020 H   0  0  0  0  0  0  0  0  0  0  0  0
    8.4272   -1.6070   -1.5519 H   0  0  0  0  0  0  0  0  0  0  0  0
    8.5654   -1.4474    0.2068 H   0  0  0  0  0  0  0  0  0  0  0  0
    6.8765    0.3778   -1.6475 H   0  0  0  0  0  0  0  0  0  0  0  0
    7.1068    0.6110    0.1121 H   0  0  0  0  0  0  0  0  0  0  0  0
    5.0472    1.3193   -0.6856 H   0  0  0  0  0  0  0  0  0  0  0  0
    2.6349    2.0199   -0.5673 H   0  0  0  0  0  0  0  0  0  0  0  0
    3.7163   -3.6670   -0.8687 H   0  0  0  0  0  0  0  0  0  0  0  0
    1.2662   -3.0942   -0.7560 H   0  0  0  0  0  0  0  0  0  0  0  0
    0.2691   -1.8740    0.1011 H   0  0  0  0  0  0  0  0  0  0  0  0
    1.4231   -2.8543    1.0304 H   0  0  0  0  0  0  0  0  0  0  0  0
    0.5320    2.0306   -1.3141 H   0  0  0  0  0  0  0  0  0  0  0  0
    0.6940    2.2679    0.4497 H   0  0  0  0  0  0  0  0  0  0  0  0
   -1.7583    1.2055   -1.0613 H   0  0  0  0  0  0  0  0  0  0  0  0
   -1.5830    2.8522   -0.3000 H   0  0  0  0  0  0  0  0  0  0  0  0
   -1.2636    1.8897    1.8953 H   0  0  0  0  0  0  0  0  0  0  0  0
   -1.3699    0.2219    1.2592 H   0  0  0  0  0  0  0  0  0  0  0  0
   -3.4344    0.8008    2.3119 H   0  0  0  0  0  0  0  0  0  0  0  0
   -3.5029    2.3968    1.3964 H   0  0  0  0  0  0  0  0  0  0  0  0
   -6.3062   -3.1791    1.5913 H   0  0  0  0  0  0  0  0  0  0  0  0
   -6.5299   -2.0990    2.9829 H   0  0  0  0  0  0  0  0  0  0  0  0
   -5.0488   -3.1895    2.9126 H   0  0  0  0  0  0  0  0  0  0  0  0
   -7.7251   -1.7307    1.3017 H   0  0  0  0  0  0  0  0  0  0  0  0
   -9.1034   -0.2340   -0.0840 H   0  0  0  0  0  0  0  0  0  0  0  0
   -8.0747    1.6396   -1.2520 H   0  0  0  0  0  0  0  0  0  0  0  0
   -6.0360    4.1588   -2.0854 H   0  0  0  0  0  0  0  0  0  0  0  0
  1  2  1  0
  2  3  1  0
  3  4  1  0
  4  5  2  0
  4  6  1  0
  6  7  2  0
  7  8  1  0
  8  9  2  0
  9 10  1  0
 10 11  2  0
 11 12  1  0
 10 13  1  0
  9 14  1  0
 14 15  1  0
 15 16  1  0
 16 17  1  0
 17 18  1  0
 18 19  1  0
 19 20  1  0
 20 21  2  0
 21 22  1  0
 22 23  1  0
 21 24  1  0
 24 25  2  0
 25 26  1  0
 26 27  2  0
 27 28  1  0
 28 29  2  0
 28 30  1  0
 11  6  1  0
 27 20  1  0
  1 31  1  0
  1 32  1  0
  1 33  1  0
  2 34  1  0
  2 35  1  0
  3 36  1  0
  3 37  1  0
  7 38  1  0
  8 39  1  0
 12 40  1  0
 13 41  1  0
 13 42  1  0
 13 43  1  0
 15 44  1  0
 15 45  1  0
 16 46  1  0
 16 47  1  0
 17 48  1  0
 17 49  1  0
 18 50  1  0
 18 51  1  0
 23 52  1  0
 23 53  1  0
 23 54  1  0
 24 55  1  0
 25 56  1  0
 26 57  1  0
 30 58  1  0
M  END
>  <Ligand ID>  (1) 
LIG0004136

>  <Ligand>  (1) 
CHEMBL3287718

>  <SMILES>  (1) 
CCCC(=O)c1ccc(c(c1O)C)OCCCCOc1c(OC)cccc1C(=O)O

>  <CID>  (1) 
90643883.0

>  <ChEMBL ID>  (1) 
nan

>  <InChiKey>  (1) 
JUJXMFHCVVWQIP-UHFFFAOYSA-N

>  <InChi>  (1) 
InChI=1S/C23H28O7/c1-4-8-18(24)16-11-12-19(15(2)21(16)25)29-13-5-6-14-30-22-17(23(26)27)9-7-10-20(22)28-3/h7,9-12,25H,4-6,8,13-14H2,1-3H3,(H,26,27)

>  <IUPAC Name>  (1) 
2-[4-(4-butanoyl-3-hydroxy-2-methylphenoxy)butoxy]-3-methoxybenzoic acid

$$$$
