
     RDKit          3D

 38 37  0  0  0  0  0  0  0  0999 V2000
    4.7180    0.1290    2.0314 C   0  0  0  0  0  0  0  0  0  0  0  0
    4.1924    0.3708    0.6257 C   0  0  0  0  0  0  0  0  0  0  0  0
    3.8279   -0.9078   -0.0790 C   0  0  0  0  0  0  0  0  0  0  0  0
    3.3193   -0.6159   -1.4499 C   0  0  0  0  0  0  0  0  0  0  0  0
    2.0884    0.2624   -1.4282 C   0  0  0  0  0  0  0  0  0  0  0  0
    0.9505   -0.3911   -0.6632 C   0  0  0  0  0  0  0  0  0  0  0  0
   -0.2043    0.6157   -0.7359 C   0  0  0  0  0  0  0  0  0  0  0  0
   -1.4245    0.0933   -0.0059 C   0  0  0  0  0  0  0  0  0  0  0  0
   -2.4865    1.1345   -0.1315 C   0  0  0  0  0  0  0  0  0  0  0  0
   -3.7861    0.7769    0.5449 C   0  0  0  0  0  0  0  0  0  0  0  0
   -4.4096   -0.4648    0.0152 C   0  0  0  0  0  0  0  0  0  0  0  0
   -5.6781   -0.6801    0.7823 C   0  0  0  0  0  0  0  0  0  0  0  0
   -6.0311    0.1241    1.6854 O   0  0  0  0  0  0  0  0  0  0  0  0
   -6.5178   -1.7588    0.5428 O   0  0  0  0  0  0  0  0  0  0  0  0
    5.0432    1.1408    2.3963 H   0  0  0  0  0  0  0  0  0  0  0  0
    5.5699   -0.5669    2.0634 H   0  0  0  0  0  0  0  0  0  0  0  0
    3.8797   -0.2205    2.6565 H   0  0  0  0  0  0  0  0  0  0  0  0
    4.9103    0.9777    0.0368 H   0  0  0  0  0  0  0  0  0  0  0  0
    3.2564    0.9600    0.7672 H   0  0  0  0  0  0  0  0  0  0  0  0
    3.0492   -1.4280    0.4943 H   0  0  0  0  0  0  0  0  0  0  0  0
    4.7054   -1.5799   -0.1776 H   0  0  0  0  0  0  0  0  0  0  0  0
    3.0308   -1.5483   -1.9811 H   0  0  0  0  0  0  0  0  0  0  0  0
    4.0930   -0.0728   -2.0287 H   0  0  0  0  0  0  0  0  0  0  0  0
    1.7114    0.3887   -2.4634 H   0  0  0  0  0  0  0  0  0  0  0  0
    2.2569    1.2527   -0.9867 H   0  0  0  0  0  0  0  0  0  0  0  0
    1.1954   -0.5851    0.3855 H   0  0  0  0  0  0  0  0  0  0  0  0
    0.6939   -1.3182   -1.2094 H   0  0  0  0  0  0  0  0  0  0  0  0
   -0.4680    0.8007   -1.8024 H   0  0  0  0  0  0  0  0  0  0  0  0
    0.1202    1.5867   -0.3107 H   0  0  0  0  0  0  0  0  0  0  0  0
   -1.0915   -0.0600    1.0536 H   0  0  0  0  0  0  0  0  0  0  0  0
   -1.7074   -0.8863   -0.4006 H   0  0  0  0  0  0  0  0  0  0  0  0
   -2.6657    1.2646   -1.2317 H   0  0  0  0  0  0  0  0  0  0  0  0
   -2.0931    2.0894    0.2706 H   0  0  0  0  0  0  0  0  0  0  0  0
   -4.4881    1.6196    0.3202 H   0  0  0  0  0  0  0  0  0  0  0  0
   -3.5976    0.7590    1.6241 H   0  0  0  0  0  0  0  0  0  0  0  0
   -4.6620   -0.2927   -1.0541 H   0  0  0  0  0  0  0  0  0  0  0  0
   -3.7740   -1.3489    0.1880 H   0  0  0  0  0  0  0  0  0  0  0  0
   -7.5271   -1.6206    0.6290 H   0  0  0  0  0  0  0  0  0  0  0  0
  1  2  1  0
  2  3  1  0
  3  4  1  0
  4  5  1  0
  5  6  1  0
  6  7  1  0
  7  8  1  0
  8  9  1  0
  9 10  1  0
 10 11  1  0
 11 12  1  0
 12 13  2  0
 12 14  1  0
  1 15  1  0
  1 16  1  0
  1 17  1  0
  2 18  1  0
  2 19  1  0
  3 20  1  0
  3 21  1  0
  4 22  1  0
  4 23  1  0
  5 24  1  0
  5 25  1  0
  6 26  1  0
  6 27  1  0
  7 28  1  0
  7 29  1  0
  8 30  1  0
  8 31  1  0
  9 32  1  0
  9 33  1  0
 10 34  1  0
 10 35  1  0
 11 36  1  0
 11 37  1  0
 14 38  1  0
M  END
>  <Ligand ID>  (1) 
LIG0000253

>  <Ligand>  (1) 
lauric acid

>  <SMILES>  (1) 
CCCCCCCCCCCC(=O)O

>  <CID>  (1) 
3893.0

>  <ChEMBL ID>  (1) 
nan

>  <InChiKey>  (1) 
POULHZVOKOAJMA-UHFFFAOYSA-N

>  <InChi>  (1) 
InChI=1S/C12H24O2/c1-2-3-4-5-6-7-8-9-10-11-12(13)14/h2-11H2,1H3,(H,13,14)

>  <IUPAC Name>  (1) 
dodecanoic acid

$$$$
