
     RDKit          3D

 12 12  0  0  0  0  0  0  0  0999 V2000
    2.6563   -0.8092    0.0912 F   0  0  0  0  0  0  0  0  0  0  0  0
    1.3690   -0.3800    0.0452 C   0  0  0  0  0  0  0  0  0  0  0  0
    1.0395    0.9593   -0.0263 C   0  0  0  0  0  0  0  0  0  0  0  0
   -0.2894    1.3613   -0.0718 C   0  0  0  0  0  0  0  0  0  0  0  0
   -1.3258    0.4219   -0.0464 C   0  0  0  0  0  0  0  0  0  0  0  0
   -0.9914   -0.9350    0.0261 C   0  0  0  0  0  0  0  0  0  0  0  0
    0.3449   -1.3191    0.0708 C   0  0  0  0  0  0  0  0  0  0  0  0
   -1.9731   -1.8873    0.0532 F   0  0  0  0  0  0  0  0  0  0  0  0
   -2.6211    0.8258   -0.0913 F   0  0  0  0  0  0  0  0  0  0  0  0
    1.8117    1.7172   -0.0481 H   0  0  0  0  0  0  0  0  0  0  0  0
   -0.5457    2.4288   -0.1287 H   0  0  0  0  0  0  0  0  0  0  0  0
    0.5250   -2.3837    0.1261 H   0  0  0  0  0  0  0  0  0  0  0  0
  1  2  1  0
  2  3  2  0
  3  4  1  0
  4  5  2  0
  5  6  1  0
  6  7  2  0
  6  8  1  0
  5  9  1  0
  7  2  1  0
  3 10  1  0
  4 11  1  0
  7 12  1  0
M  END
>  <Ligand ID>  (1) 
LIG0000761

>  <Ligand>  (1) 
1,2,4-trifluorobenzene

>  <SMILES>  (1) 
Fc1ccc(c(c1)F)F

>  <CID>  (1) 
67773.0

>  <ChEMBL ID>  (1) 
nan

>  <InChiKey>  (1) 
PEBWOGPSYUIOBP-UHFFFAOYSA-N

>  <InChi>  (1) 
InChI=1S/C6H3F3/c7-4-1-2-5(8)6(9)3-4/h1-3H

>  <IUPAC Name>  (1) 
1,2,4-trifluorobenzene

$$$$
