
     RDKit          3D

185191  0  0  0  0  0  0  0  0999 V2000
    8.2085   -6.9868   -0.9454 N   0  0  0  0  0  0  0  0  0  0  0  0
    8.1226   -6.8303   -2.3308 C   0  0  0  0  0  0  0  0  0  0  0  0
    7.7839   -5.6728   -2.8764 N   0  0  0  0  0  0  0  0  0  0  0  0
    7.5116   -4.5895   -1.8893 C   0  0  0  0  0  0  0  0  0  0  0  0
    6.6350   -3.4972   -2.4489 C   0  0  0  0  0  0  0  0  0  0  0  0
    6.3280   -2.4562   -1.4378 C   0  0  0  0  0  0  0  0  0  0  0  0
    5.4482   -2.9861   -0.2389 C   0  0  2  0  0  0  0  0  0  0  0  0
    4.2556   -3.4274   -0.9345 N   0  0  0  0  0  0  0  0  0  0  0  0
    3.8772   -4.8335   -0.9749 C   0  0  0  0  0  0  0  0  0  0  0  0
    4.6392   -5.5988   -0.4076 O   0  0  0  0  0  0  0  0  0  0  0  0
    2.6234   -5.2931   -1.6759 C   0  0  2  0  0  0  0  0  0  0  0  0
    3.0447   -6.1569   -2.8260 C   0  0  0  0  0  0  0  0  0  0  0  0
    1.8859   -4.1156   -2.0463 N   0  0  0  0  0  0  0  0  0  0  0  0
    0.6116   -3.7955   -1.5160 C   0  0  0  0  0  0  0  0  0  0  0  0
    0.1161   -4.7442   -0.8121 O   0  0  0  0  0  0  0  0  0  0  0  0
   -0.0674   -2.5367   -1.7376 C   0  0  2  0  0  0  0  0  0  0  0  0
    0.8139   -1.4665   -0.9670 C   0  0  0  0  0  0  0  0  0  0  0  0
    0.8721   -1.8802    0.4639 C   0  0  0  0  0  0  0  0  0  0  0  0
    1.8379   -2.7313    0.9036 N   0  0  0  0  0  0  0  0  0  0  0  0
    1.6611   -2.8686    2.2452 C   0  0  0  0  0  0  0  0  0  0  0  0
    0.6241   -2.1372    2.6690 N   0  0  0  0  0  0  0  0  0  0  0  0
    0.1494   -1.5351    1.5633 C   0  0  0  0  0  0  0  0  0  0  0  0
   -1.3440   -2.3429   -1.0979 N   0  0  0  0  0  0  0  0  0  0  0  0
   -2.1531   -1.3209   -1.7500 C   0  0  0  0  0  0  0  0  0  0  0  0
   -1.7994   -0.8830   -2.8104 O   0  0  0  0  0  0  0  0  0  0  0  0
   -3.4197   -0.8554   -1.0136 C   0  0  1  0  0  0  0  0  0  0  0  0
   -3.7211   -1.8992   -0.0856 N   0  0  0  0  0  0  0  0  0  0  0  0
   -4.1024   -1.7504    1.3053 C   0  0  0  0  0  0  0  0  0  0  0  0
   -4.1780   -0.7443    1.9417 O   0  0  0  0  0  0  0  0  0  0  0  0
   -4.4425   -3.1067    1.9102 C   0  0  2  0  0  0  0  0  0  0  0  0
   -5.8554   -3.4458    1.4224 C   0  0  0  0  0  0  0  0  0  0  0  0
   -6.2710   -4.7613    1.9519 C   0  0  0  0  0  0  0  0  0  0  0  0
   -6.0578   -5.8407    1.0816 C   0  0  0  0  0  0  0  0  0  0  0  0
   -6.4251   -7.1115    1.5498 C   0  0  0  0  0  0  0  0  0  0  0  0
   -6.9656   -7.2674    2.8036 C   0  0  0  0  0  0  0  0  0  0  0  0
   -7.1449   -6.1796    3.6011 C   0  0  0  0  0  0  0  0  0  0  0  0
   -6.8061   -4.9029    3.2006 C   0  0  0  0  0  0  0  0  0  0  0  0
   -7.3614   -8.5167    3.3344 O   0  0  0  0  0  0  0  0  0  0  0  0
   -4.5950   -2.8224    3.3389 N   0  0  0  0  0  0  0  0  0  0  0  0
   -2.8738    0.4169   -0.4047 C   0  0  0  0  0  0  0  0  0  0  0  0
   -3.5571    1.3882    0.3546 C   0  0  0  0  0  0  0  0  0  0  0  0
   -2.9694    1.7977    1.4045 O   0  0  0  0  0  0  0  0  0  0  0  0
   -4.8023    2.0850    0.2660 N   0  0  0  0  0  0  0  0  0  0  0  0
   -5.6887    1.7205   -0.7798 C   0  0  2  0  0  0  0  0  0  0  0  0
   -6.4683    0.4945   -0.6272 C   0  0  0  0  0  0  0  0  0  0  0  0
   -6.6705    0.0730    0.5687 O   0  0  0  0  0  0  0  0  0  0  0  0
   -7.0349   -0.2995   -1.6360 N   0  0  0  0  0  0  0  0  0  0  0  0
   -5.1870    2.0140   -2.1236 C   0  0  0  0  0  0  0  0  0  0  0  0
   -6.0320    1.5785   -3.2177 C   0  0  0  0  0  0  0  0  0  0  0  0
   -5.7277    0.4846   -3.9402 C   0  0  0  0  0  0  0  0  0  0  0  0
   -6.5066    0.0257   -4.9963 C   0  0  0  0  0  0  0  0  0  0  0  0
   -7.6409    0.8289   -5.2232 C   0  0  0  0  0  0  0  0  0  0  0  0
   -7.9692    1.9268   -4.5169 C   0  0  0  0  0  0  0  0  0  0  0  0
   -7.1819    2.3567   -3.4793 C   0  0  0  0  0  0  0  0  0  0  0  0
   -8.4207    0.3424   -6.3137 O   0  0  0  0  0  0  0  0  0  0  0  0
   -4.9753    3.1621    1.2327 C   0  0  2  0  0  0  0  0  0  0  0  0
   -6.2247    3.9435    1.1055 C   0  0  0  0  0  0  0  0  0  0  0  0
   -3.7256    3.9365    1.2987 N   0  0  0  0  0  0  0  0  0  0  0  0
   -3.3683    4.8732    0.2753 C   0  0  0  0  0  0  0  0  0  0  0  0
   -4.2291    5.0143   -0.5993 O   0  0  0  0  0  0  0  0  0  0  0  0
   -2.1252    5.6269    0.2010 C   0  0  1  0  0  0  0  0  0  0  0  0
   -1.0401    5.1401    1.0856 N   0  0  0  0  0  0  0  0  0  0  0  0
   -0.4412    5.9376    2.0861 C   0  0  0  0  0  0  0  0  0  0  0  0
   -1.0359    7.0880    2.1886 O   0  0  0  0  0  0  0  0  0  0  0  0
    0.6556    5.6851    2.9672 C   0  0  1  0  0  0  0  0  0  0  0  0
    1.5303    4.5576    2.7726 N   0  0  0  0  0  0  0  0  0  0  0  0
    1.7930    3.5856    3.7832 C   0  0  0  0  0  0  0  0  0  0  0  0
    1.0519    3.7954    4.8191 O   0  0  0  0  0  0  0  0  0  0  0  0
    2.6908    2.4706    3.8500 C   0  0  1  0  0  0  0  0  0  0  0  0
    3.6285    2.1787    2.8103 N   0  0  0  0  0  0  0  0  0  0  0  0
    3.6439    0.8676    2.1221 C   0  0  0  0  0  0  0  0  0  0  0  0
    2.6867    0.1860    2.4388 O   0  0  0  0  0  0  0  0  0  0  0  0
    4.7516    0.6074    1.2176 C   0  0  1  0  0  0  0  0  0  0  0  0
    4.6955   -0.5349    0.3522 N   0  0  0  0  0  0  0  0  0  0  0  0
    5.3702   -1.7707    0.5714 C   0  0  0  0  0  0  0  0  0  0  0  0
    6.0132   -1.7848    1.6735 O   0  0  0  0  0  0  0  0  0  0  0  0
    5.4713    1.8095    0.6712 C   0  0  0  0  0  0  0  0  0  0  0  0
    6.5515    1.3569   -0.2352 C   0  0  0  0  0  0  0  0  0  0  0  0
    6.5376    1.5607   -1.6768 C   0  0  0  0  0  0  0  0  0  0  0  0
    7.6815    1.0517   -2.1458 N   0  0  0  0  0  0  0  0  0  0  0  0
    8.4550    0.5361   -1.1871 C   0  0  0  0  0  0  0  0  0  0  0  0
    7.7470    0.7362   -0.0427 C   0  0  0  0  0  0  0  0  0  0  0  0
    8.3235    0.2784    1.1519 C   0  0  0  0  0  0  0  0  0  0  0  0
    9.5508   -0.3330    1.0747 C   0  0  0  0  0  0  0  0  0  0  0  0
   10.2503   -0.5266   -0.0882 C   0  0  0  0  0  0  0  0  0  0  0  0
    9.6872   -0.0758   -1.2719 C   0  0  0  0  0  0  0  0  0  0  0  0
    3.6387    2.6780    5.0987 C   0  0  0  0  0  0  0  0  0  0  0  0
    4.3329    4.0021    4.8389 C   0  0  0  0  0  0  0  0  0  0  0  0
    4.0684    4.6547    3.8195 O   0  0  0  0  0  0  0  0  0  0  0  0
    5.3079    4.5269    5.7573 N   0  0  0  0  0  0  0  0  0  0  0  0
    1.5904    6.9124    2.8899 C   0  0  0  0  0  0  0  0  0  0  0  0
   -1.5491    5.7204   -1.2097 C   0  0  0  0  0  0  0  0  0  0  0  0
   -2.4600    6.3345   -2.1870 C   0  0  0  0  0  0  0  0  0  0  0  0
   -3.1873    5.5129   -3.0071 C   0  0  0  0  0  0  0  0  0  0  0  0
   -4.0804    6.1441   -3.9216 C   0  0  0  0  0  0  0  0  0  0  0  0
   -4.1429    7.5203   -3.9037 C   0  0  0  0  0  0  0  0  0  0  0  0
   -3.3993    8.3168   -3.0616 C   0  0  0  0  0  0  0  0  0  0  0  0
   -2.5466    7.7128   -2.1947 C   0  0  0  0  0  0  0  0  0  0  0  0
   -5.0485    2.5383    2.5864 C   0  0  0  0  0  0  0  0  0  0  0  0
   -4.1141    2.8199    3.4376 O   0  0  0  0  0  0  0  0  0  0  0  0
   -6.0086    1.6857    3.0286 O   0  0  0  0  0  0  0  0  0  0  0  0
    8.4093   -7.9543   -3.2035 N   0  0  0  0  0  0  0  0  0  0  0  0
    9.0417   -6.7677   -0.3444 H   0  0  0  0  0  0  0  0  0  0  0  0
    7.3536   -7.3512   -0.4465 H   0  0  0  0  0  0  0  0  0  0  0  0
    7.1423   -5.0608   -0.9918 H   0  0  0  0  0  0  0  0  0  0  0  0
    8.5357   -4.1284   -1.7206 H   0  0  0  0  0  0  0  0  0  0  0  0
    5.7335   -3.9717   -2.8966 H   0  0  0  0  0  0  0  0  0  0  0  0
    7.1556   -3.0150   -3.3297 H   0  0  0  0  0  0  0  0  0  0  0  0
    5.8231   -1.6085   -1.8553 H   0  0  0  0  0  0  0  0  0  0  0  0
    7.3171   -2.1433   -0.9879 H   0  0  0  0  0  0  0  0  0  0  0  0
    6.0115   -3.7974    0.2010 H   0  0  0  0  0  0  0  0  0  0  0  0
    3.6213   -2.8106   -1.4131 H   0  0  0  0  0  0  0  0  0  0  0  0
    2.0923   -5.9158   -0.9250 H   0  0  0  0  0  0  0  0  0  0  0  0
    3.9519   -6.7510   -2.5714 H   0  0  0  0  0  0  0  0  0  0  0  0
    3.3889   -5.4541   -3.6470 H   0  0  0  0  0  0  0  0  0  0  0  0
    2.2466   -6.7603   -3.2587 H   0  0  0  0  0  0  0  0  0  0  0  0
    2.2725   -3.4755   -2.7376 H   0  0  0  0  0  0  0  0  0  0  0  0
    0.0022   -2.1760   -2.7682 H   0  0  0  0  0  0  0  0  0  0  0  0
    1.7848   -1.4108   -1.4061 H   0  0  0  0  0  0  0  0  0  0  0  0
    0.1860   -0.5587   -1.0045 H   0  0  0  0  0  0  0  0  0  0  0  0
    2.2759   -3.4768    2.8737 H   0  0  0  0  0  0  0  0  0  0  0  0
    0.2948   -2.0906    3.6712 H   0  0  0  0  0  0  0  0  0  0  0  0
   -0.6886   -0.8773    1.6058 H   0  0  0  0  0  0  0  0  0  0  0  0
   -1.7385   -2.7890   -0.3012 H   0  0  0  0  0  0  0  0  0  0  0  0
   -4.2662   -0.6831   -1.6405 H   0  0  0  0  0  0  0  0  0  0  0  0
   -3.6641   -2.8939   -0.5059 H   0  0  0  0  0  0  0  0  0  0  0  0
   -3.7399   -3.8664    1.6850 H   0  0  0  0  0  0  0  0  0  0  0  0
   -6.5589   -2.6671    1.7754 H   0  0  0  0  0  0  0  0  0  0  0  0
   -5.9150   -3.4621    0.3109 H   0  0  0  0  0  0  0  0  0  0  0  0
   -5.6345   -5.7167    0.1286 H   0  0  0  0  0  0  0  0  0  0  0  0
   -6.2918   -7.9709    0.9178 H   0  0  0  0  0  0  0  0  0  0  0  0
   -7.5700   -6.2475    4.6197 H   0  0  0  0  0  0  0  0  0  0  0  0
   -6.9272   -4.0276    3.8020 H   0  0  0  0  0  0  0  0  0  0  0  0
   -6.9416   -9.3195    2.8410 H   0  0  0  0  0  0  0  0  0  0  0  0
   -5.2396   -1.9877    3.4226 H   0  0  0  0  0  0  0  0  0  0  0  0
   -3.6555   -2.4523    3.6216 H   0  0  0  0  0  0  0  0  0  0  0  0
   -1.9663   -0.0026    0.1925 H   0  0  0  0  0  0  0  0  0  0  0  0
   -2.2368    0.9719   -1.2017 H   0  0  0  0  0  0  0  0  0  0  0  0
   -6.5853    2.5116   -0.6535 H   0  0  0  0  0  0  0  0  0  0  0  0
   -6.5626   -1.2326   -1.8641 H   0  0  0  0  0  0  0  0  0  0  0  0
   -7.8871   -0.1053   -2.1888 H   0  0  0  0  0  0  0  0  0  0  0  0
   -5.0457    3.1254   -2.2974 H   0  0  0  0  0  0  0  0  0  0  0  0
   -4.1348    1.6237   -2.2862 H   0  0  0  0  0  0  0  0  0  0  0  0
   -4.8457   -0.1129   -3.7393 H   0  0  0  0  0  0  0  0  0  0  0  0
   -6.2887   -0.8333   -5.5871 H   0  0  0  0  0  0  0  0  0  0  0  0
   -8.8498    2.4989   -4.7612 H   0  0  0  0  0  0  0  0  0  0  0  0
   -7.4107    3.2214   -2.8735 H   0  0  0  0  0  0  0  0  0  0  0  0
   -8.6808   -0.6527   -6.2607 H   0  0  0  0  0  0  0  0  0  0  0  0
   -6.3419    4.4734    0.1458 H   0  0  0  0  0  0  0  0  0  0  0  0
   -7.1434    3.3249    1.3380 H   0  0  0  0  0  0  0  0  0  0  0  0
   -6.2053    4.7049    1.9097 H   0  0  0  0  0  0  0  0  0  0  0  0
   -3.0549    3.8847    2.0668 H   0  0  0  0  0  0  0  0  0  0  0  0
   -2.3878    6.6752    0.4734 H   0  0  0  0  0  0  0  0  0  0  0  0
   -0.6965    4.1856    0.9876 H   0  0  0  0  0  0  0  0  0  0  0  0
    0.2566    5.7012    4.0225 H   0  0  0  0  0  0  0  0  0  0  0  0
    1.9878    4.4197    1.8819 H   0  0  0  0  0  0  0  0  0  0  0  0
    2.0948    1.5725    4.1415 H   0  0  0  0  0  0  0  0  0  0  0  0
    4.3135    2.8202    2.4649 H   0  0  0  0  0  0  0  0  0  0  0  0
    5.5689    0.2334    2.0051 H   0  0  0  0  0  0  0  0  0  0  0  0
    4.1686   -0.5219   -0.5414 H   0  0  0  0  0  0  0  0  0  0  0  0
    4.7927    2.4627    0.0867 H   0  0  0  0  0  0  0  0  0  0  0  0
    5.9554    2.3689    1.4903 H   0  0  0  0  0  0  0  0  0  0  0  0
    5.7119    2.0416   -2.1350 H   0  0  0  0  0  0  0  0  0  0  0  0
    7.8863    1.0885   -3.1957 H   0  0  0  0  0  0  0  0  0  0  0  0
    7.8498    0.4025    2.0963 H   0  0  0  0  0  0  0  0  0  0  0  0
    9.9908   -0.6905    1.9949 H   0  0  0  0  0  0  0  0  0  0  0  0
   11.2279   -1.0274   -0.0721 H   0  0  0  0  0  0  0  0  0  0  0  0
   10.1982   -0.1936   -2.2239 H   0  0  0  0  0  0  0  0  0  0  0  0
    4.3245    1.8478    5.0708 H   0  0  0  0  0  0  0  0  0  0  0  0
    3.0241    2.8318    5.9907 H   0  0  0  0  0  0  0  0  0  0  0  0
    5.0688    5.3836    6.2656 H   0  0  0  0  0  0  0  0  0  0  0  0
    6.2049    4.0034    5.8440 H   0  0  0  0  0  0  0  0  0  0  0  0
    2.4995    6.6883    2.3015 H   0  0  0  0  0  0  0  0  0  0  0  0
    1.0735    7.7610    2.3272 H   0  0  0  0  0  0  0  0  0  0  0  0
    1.9010    7.2625    3.8711 H   0  0  0  0  0  0  0  0  0  0  0  0
   -1.3668    4.6645   -1.5166 H   0  0  0  0  0  0  0  0  0  0  0  0
   -0.5397    6.1968   -1.2199 H   0  0  0  0  0  0  0  0  0  0  0  0
   -3.1408    4.4353   -3.0403 H   0  0  0  0  0  0  0  0  0  0  0  0
   -4.6592    5.5151   -4.5858 H   0  0  0  0  0  0  0  0  0  0  0  0
   -4.8225    8.0138   -4.6184 H   0  0  0  0  0  0  0  0  0  0  0  0
   -3.5482    9.3873   -3.1599 H   0  0  0  0  0  0  0  0  0  0  0  0
   -1.9315    8.3268   -1.5163 H   0  0  0  0  0  0  0  0  0  0  0  0
   -6.1865    1.5792    4.0275 H   0  0  0  0  0  0  0  0  0  0  0  0
    7.9105   -7.9468   -4.0925 H   0  0  0  0  0  0  0  0  0  0  0  0
    9.0883   -8.6337   -2.8383 H   0  0  0  0  0  0  0  0  0  0  0  0
  1  2  1  0
  2  3  2  3
  3  4  1  0
  4  5  1  0
  5  6  1  0
  6  7  1  0
  7  8  1  0
  8  9  1  0
  9 10  2  0
  9 11  1  0
 11 12  1  0
 11 13  1  0
 13 14  1  0
 14 15  2  0
 14 16  1  0
 16 17  1  0
 17 18  1  0
 18 19  1  0
 19 20  2  0
 20 21  1  0
 21 22  1  0
 16 23  1  0
 23 24  1  0
 24 25  2  0
 24 26  1  0
 26 27  1  0
 27 28  1  0
 28 29  2  0
 28 30  1  0
 30 31  1  0
 31 32  1  0
 32 33  2  0
 33 34  1  0
 34 35  2  0
 35 36  1  0
 36 37  2  0
 35 38  1  0
 30 39  1  0
 26 40  1  0
 40 41  1  0
 41 42  2  0
 41 43  1  0
 43 44  1  0
 44 45  1  0
 45 46  2  0
 45 47  1  0
 44 48  1  0
 48 49  1  0
 49 50  2  0
 50 51  1  0
 51 52  2  0
 52 53  1  0
 53 54  2  0
 52 55  1  0
 43 56  1  0
 56 57  1  6
 56 58  1  0
 58 59  1  0
 59 60  2  0
 59 61  1  0
 61 62  1  0
 62 63  1  0
 63 64  2  0
 63 65  1  0
 65 66  1  0
 66 67  1  0
 67 68  2  0
 67 69  1  0
 69 70  1  0
 70 71  1  0
 71 72  2  0
 71 73  1  0
 73 74  1  0
 74 75  1  0
 75 76  2  0
 73 77  1  0
 77 78  1  0
 78 79  2  0
 79 80  1  0
 80 81  1  0
 81 82  2  0
 82 83  1  0
 83 84  2  0
 84 85  1  0
 85 86  2  0
 69 87  1  0
 87 88  1  0
 88 89  2  0
 88 90  1  0
 65 91  1  0
 61 92  1  0
 92 93  1  0
 93 94  2  0
 94 95  1  0
 95 96  2  0
 96 97  1  0
 97 98  2  0
 56 99  1  0
 99100  2  0
 99101  1  0
  2102  1  0
 75  7  1  0
 82 78  1  0
 98 93  1  0
 22 18  2  0
 37 32  1  0
 54 49  1  0
 86 81  1  0
  1103  1  0
  1104  1  0
  4105  1  0
  4106  1  0
  5107  1  0
  5108  1  0
  6109  1  0
  6110  1  0
  7111  1  1
  8112  1  0
 11113  1  1
 12114  1  0
 12115  1  0
 12116  1  0
 13117  1  0
 16118  1  6
 17119  1  0
 17120  1  0
 20121  1  0
 21122  1  0
 22123  1  0
 23124  1  0
 26125  1  6
 27126  1  0
 30127  1  1
 31128  1  0
 31129  1  0
 33130  1  0
 34131  1  0
 36132  1  0
 37133  1  0
 38134  1  0
 39135  1  0
 39136  1  0
 40137  1  0
 40138  1  0
 44139  1  1
 47140  1  0
 47141  1  0
 48142  1  0
 48143  1  0
 50144  1  0
 51145  1  0
 53146  1  0
 54147  1  0
 55148  1  0
 57149  1  0
 57150  1  0
 57151  1  0
 58152  1  0
 61153  1  1
 62154  1  0
 65155  1  1
 66156  1  0
 69157  1  1
 70158  1  0
 73159  1  1
 74160  1  0
 77161  1  0
 77162  1  0
 79163  1  0
 80164  1  0
 83165  1  0
 84166  1  0
 85167  1  0
 86168  1  0
 87169  1  0
 87170  1  0
 90171  1  0
 90172  1  0
 91173  1  0
 91174  1  0
 91175  1  0
 92176  1  0
 92177  1  0
 94178  1  0
 95179  1  0
 96180  1  0
 97181  1  0
 98182  1  0
101183  1  0
102184  1  0
102185  1  0
M  END
>  <Ligand ID>  (1) 
LIG0002285

>  <Ligand>  (1) 
CHEMBL2369968

>  <SMILES>  (1) 
NC(=NCCC[C@@H]1NC(=O)[C@H](C)NC(=O)[C@H](Cc2nc[nH]c2)NC(=O)[C@@H](NC(=O)[C@H](Cc2ccc(cc2)O)N)CC(=O)N([C@H](C(=O)N)Cc2ccc(cc2)O)[C@](C)(NC(=O)[C@@H](NC(=O)[C@@H](NC(=O)[C@@H](NC(=O)[C@@H](NC1=O)Cc1c[nH]c2c1cccc2)CC(=O)N)C)Cc1ccccc1)C(=O)O)N

>  <CID>  (1) 
73346956.0

>  <ChEMBL ID>  (1) 
nan

>  <InChiKey>  (1) 
COQOIHHAVMFYQY-QFPOXBEPSA-N

>  <InChi>  (1) 
InChI=1S/C67H83N19O16/c1-34-56(92)79-46(14-9-23-74-66(71)72)59(95)82-48(27-39-31-75-45-13-8-7-12-43(39)45)62(98)84-50(29-53(69)89)61(97)78-35(2)57(93)80-47(25-36-10-5-4-6-11-36)64(100)85-67(3,65(101)102)86(52(55(70)91)26-38-17-21-42(88)22-18-38)54(90)30-51(81-58(94)44(68)24-37-15-19-41(87)20-16-37)63(99)83-49(60(96)77-34)28-40-32-73-33-76-40/h4-8,10-13,15-22,31-35,44,46-52,75,87-88H,9,14,23-30,68H2,1-3H3,(H2,69,89)(H2,70,91)(H,73,76)(H,77,96)(H,78,97)(H,79,92)(H,80,93)(H,81,94)(H,82,95)(H,83,99)(H,84,98)(H,85,100)(H,101,102)(H4,71,72,74)/t34-,35-,44-,46-,47-,48-,49-,50-,51-,52-,67-/m0/s1

>  <IUPAC Name>  (1) 
(2S,5S,8S,11S,14S,17S,20S,23S,26S)-1-[(2S)-1-amino-3-(4-hydroxyphenyl)-1-oxopropan-2-yl]-26-[[(2S)-2-amino-3-(4-hydroxyphenyl)propanoyl]amino]-11-(2-amino-2-oxoethyl)-5-benzyl-17-[3-(diaminomethylideneamino)propyl]-23-(1H-imidazol-4-ylmethyl)-14-(1H-indol-3-ylmethyl)-2,8,20-trimethyl-4,7,10,13,16,19,22,25,28-nonaoxo-1,3,6,9,12,15,18,21,24-nonazacyclooctacosane-2-carboxylic acid

$$$$
