
     RDKit          3D

 71 78  0  0  0  0  0  0  0  0999 V2000
   -3.2551   -2.1308   -1.1287 C   0  0  0  0  0  0  0  0  0  0  0  0
   -2.9334   -0.8645   -0.7380 O   0  0  0  0  0  0  0  0  0  0  0  0
   -1.6302   -0.6252   -0.4099 C   0  0  1  0  0  0  0  0  0  0  0  0
   -1.1347   -1.4732    0.7413 C   0  0  0  0  0  0  0  0  0  0  0  0
    0.0982   -1.1046    1.1803 C   0  0  0  0  0  0  0  0  0  0  0  0
    0.7635   -0.0781    0.3302 C   0  0  2  0  0  0  0  0  0  0  0  0
    0.7380   -0.5858   -1.1041 C   0  0  2  0  0  0  0  0  0  0  0  0
   -0.6548   -0.8669   -1.5311 C   0  0  1  0  0  0  0  0  0  0  0  0
   -0.6683   -2.2618   -1.8912 O   0  0  0  0  0  0  0  0  0  0  0  0
    0.4598   -2.9092   -1.4254 C   0  0  0  0  0  0  0  0  0  0  0  0
    1.2851   -1.9552   -0.9365 C   0  0  0  0  0  0  0  0  0  0  0  0
    2.5087   -2.0921   -0.3595 C   0  0  0  0  0  0  0  0  0  0  0  0
    3.1681   -0.8747    0.1471 C   0  0  0  0  0  0  0  0  0  0  0  0
    2.1911    0.1862    0.6506 C   0  0  1  0  0  0  0  0  0  0  0  0
    2.4741    1.3844   -0.0931 N   0  0  0  0  0  0  0  0  0  0  0  0
    2.4461    1.2475   -1.4904 C   0  0  0  0  0  0  0  0  0  0  0  0
    1.5792    0.1791   -2.0496 C   0  0  0  0  0  0  0  0  0  0  0  0
    3.1277    2.4273    0.5307 C   0  0  0  0  0  0  0  0  0  0  0  0
    4.5697    2.2003    0.9104 C   0  0  0  0  0  0  0  0  0  0  0  0
    5.2233    3.3959    1.5958 C   0  0  0  0  0  0  0  0  0  0  0  0
    5.5941    3.0085    0.2131 C   0  0  0  0  0  0  0  0  0  0  0  0
    2.9875   -3.3810   -0.2592 C   0  0  0  0  0  0  0  0  0  0  0  0
    2.2007   -4.4359   -0.7440 C   0  0  0  0  0  0  0  0  0  0  0  0
    0.9449   -4.2129   -1.3241 C   0  0  0  0  0  0  0  0  0  0  0  0
    0.1561   -5.2410   -1.8059 O   0  0  0  0  0  0  0  0  0  0  0  0
   -0.0652    1.1528    0.3593 C   0  0  0  0  0  0  0  0  0  0  0  0
   -1.5238    0.8258    0.0403 C   0  0  1  0  0  0  0  0  0  0  0  0
   -2.0377    1.7384   -1.0612 C   0  0  0  0  0  0  0  0  0  0  0  0
   -2.3065    1.0952    1.2678 C   0  0  1  0  0  0  0  0  0  0  0  0
   -3.7560    0.8544    1.1935 C   0  0  0  0  0  0  0  0  0  0  0  0
   -4.3613   -0.3406    1.5266 C   0  0  0  0  0  0  0  0  0  0  0  0
   -5.7252   -0.5146    1.4354 C   0  0  0  0  0  0  0  0  0  0  0  0
   -6.5660    0.4918    1.0070 C   0  0  0  0  0  0  0  0  0  0  0  0
   -5.9772    1.6924    0.6701 C   0  0  0  0  0  0  0  0  0  0  0  0
   -4.6121    1.8640    0.7623 C   0  0  0  0  0  0  0  0  0  0  0  0
   -7.8995    0.3002    0.9245 F   0  0  0  0  0  0  0  0  0  0  0  0
   -1.7857    0.4645    2.4162 O   0  0  0  0  0  0  0  0  0  0  0  0
   -3.0282   -2.9143   -0.3672 H   0  0  0  0  0  0  0  0  0  0  0  0
   -2.9345   -2.3669   -2.1459 H   0  0  0  0  0  0  0  0  0  0  0  0
   -4.3962   -2.1432   -1.1930 H   0  0  0  0  0  0  0  0  0  0  0  0
   -1.6893   -2.2723    1.1645 H   0  0  0  0  0  0  0  0  0  0  0  0
    0.5357   -1.5310    2.0672 H   0  0  0  0  0  0  0  0  0  0  0  0
   -0.9474   -0.3530   -2.4755 H   0  0  0  0  0  0  0  0  0  0  0  0
    3.7921   -0.4709   -0.6722 H   0  0  0  0  0  0  0  0  0  0  0  0
    3.8667   -1.2051    0.9480 H   0  0  0  0  0  0  0  0  0  0  0  0
    2.3763    0.3530    1.7075 H   0  0  0  0  0  0  0  0  0  0  0  0
    2.0959    2.2341   -1.9154 H   0  0  0  0  0  0  0  0  0  0  0  0
    3.5119    1.1824   -1.8485 H   0  0  0  0  0  0  0  0  0  0  0  0
    0.9831    0.5790   -2.9319 H   0  0  0  0  0  0  0  0  0  0  0  0
    2.2776   -0.5471   -2.5677 H   0  0  0  0  0  0  0  0  0  0  0  0
    2.5644    2.7022    1.4713 H   0  0  0  0  0  0  0  0  0  0  0  0
    3.0651    3.3428   -0.0926 H   0  0  0  0  0  0  0  0  0  0  0  0
    4.8585    1.2122    1.3078 H   0  0  0  0  0  0  0  0  0  0  0  0
    5.9650    3.2029    2.3977 H   0  0  0  0  0  0  0  0  0  0  0  0
    4.6374    4.3081    1.7395 H   0  0  0  0  0  0  0  0  0  0  0  0
    5.2589    3.6594   -0.6235 H   0  0  0  0  0  0  0  0  0  0  0  0
    6.6104    2.5885    0.0628 H   0  0  0  0  0  0  0  0  0  0  0  0
    3.9538   -3.5374    0.1897 H   0  0  0  0  0  0  0  0  0  0  0  0
    2.5802   -5.4659   -0.6666 H   0  0  0  0  0  0  0  0  0  0  0  0
   -0.0184   -5.9957   -1.1256 H   0  0  0  0  0  0  0  0  0  0  0  0
    0.0498    1.5956    1.3824 H   0  0  0  0  0  0  0  0  0  0  0  0
    0.3153    1.9182   -0.3444 H   0  0  0  0  0  0  0  0  0  0  0  0
   -2.0374    2.7864   -0.7411 H   0  0  0  0  0  0  0  0  0  0  0  0
   -3.0079    1.3493   -1.3920 H   0  0  0  0  0  0  0  0  0  0  0  0
   -1.3599    1.6960   -1.9630 H   0  0  0  0  0  0  0  0  0  0  0  0
   -2.2301    2.2036    1.5568 H   0  0  0  0  0  0  0  0  0  0  0  0
   -3.7692   -1.1760    1.8733 H   0  0  0  0  0  0  0  0  0  0  0  0
   -6.1773   -1.4693    1.7046 H   0  0  0  0  0  0  0  0  0  0  0  0
   -6.6354    2.4908    0.3303 H   0  0  0  0  0  0  0  0  0  0  0  0
   -4.2379    2.8448    0.4748 H   0  0  0  0  0  0  0  0  0  0  0  0
   -2.4521    0.6381    3.1379 H   0  0  0  0  0  0  0  0  0  0  0  0
  1  2  1  0
  3  2  1  6
  3  4  1  0
  4  5  2  0
  5  6  1  0
  6  7  1  0
  7  8  1  0
  8  9  1  0
  9 10  1  0
 10 11  2  0
 11 12  1  0
 12 13  1  0
 13 14  1  0
 14 15  1  0
 15 16  1  0
 16 17  1  0
 15 18  1  0
 18 19  1  0
 19 20  1  0
 20 21  1  0
 12 22  2  0
 22 23  1  0
 23 24  2  0
 24 25  1  0
  6 26  1  6
 26 27  1  0
 27 28  1  6
 27 29  1  0
 29 30  1  0
 30 31  2  0
 31 32  1  0
 32 33  2  0
 33 34  1  0
 34 35  2  0
 33 36  1  0
 29 37  1  0
  8  3  1  0
 24 10  1  0
 35 30  1  0
 27  3  1  0
 14  6  1  0
 21 19  1  0
  7 17  1  6
 11  7  1  0
  1 38  1  0
  1 39  1  0
  1 40  1  0
  4 41  1  0
  5 42  1  0
  8 43  1  6
 13 44  1  0
 13 45  1  0
 14 46  1  1
 16 47  1  0
 16 48  1  0
 17 49  1  0
 17 50  1  0
 18 51  1  0
 18 52  1  0
 19 53  1  0
 20 54  1  0
 20 55  1  0
 21 56  1  0
 21 57  1  0
 22 58  1  0
 23 59  1  0
 25 60  1  0
 26 61  1  0
 26 62  1  0
 28 63  1  0
 28 64  1  0
 28 65  1  0
 29 66  1  1
 31 67  1  0
 32 68  1  0
 34 69  1  0
 35 70  1  0
 37 71  1  0
M  END
>  <Ligand ID>  (1) 
LIG0005139

>  <Ligand>  (1) 
CHEMBL3581743

>  <SMILES>  (1) 
CO[C@@]12C=C[C@@]3([C@@]45[C@H]1Oc1c5c(C[C@H]3N(CC4)CC3CC3)ccc1O)C[C@]2(C)[C@@H](c1ccc(cc1)F)O

>  <CID>  (1) 
122179053.0

>  <ChEMBL ID>  (1) 
nan

>  <InChiKey>  (1) 
FZDIMXLFHUBMEZ-KTLUODIZSA-N

>  <InChi>  (1) 
InChI=1S/C31H34FNO4/c1-28(26(35)19-5-8-21(32)9-6-19)17-29-11-12-31(28,36-2)27-30(29)13-14-33(16-18-3-4-18)23(29)15-20-7-10-22(34)25(37-27)24(20)30/h5-12,18,23,26-27,34-35H,3-4,13-17H2,1-2H3/t23-,26-,27-,28-,29-,30+,31+/m1/s1

>  <IUPAC Name>  (1) 
(1R,2S,6R,14R,15R,19R)-5-(cyclopropylmethyl)-19-[(R)-(4-fluorophenyl)-hydroxymethyl]-15-methoxy-19-methyl-13-oxa-5-azahexacyclo[13.2.2.12,8.01,6.02,14.012,20]icosa-8(20),9,11,16-tetraen-11-ol

$$$$
