
     RDKit          3D

 27 27  0  0  0  0  0  0  0  0999 V2000
    3.2476    1.3853   -0.6471 C   0  0  0  0  0  0  0  0  0  0  0  0
    2.6337    0.1883    0.0186 C   0  0  1  0  0  0  0  0  0  0  0  0
    1.3039    0.6207    0.7468 C   0  0  0  0  0  0  0  0  0  0  0  0
    0.8264   -0.6215    1.3375 C   0  0  0  0  0  0  0  0  0  0  0  0
   -0.3698   -1.1288    1.3060 C   0  0  0  0  0  0  0  0  0  0  0  0
   -1.5591   -0.6013    0.6927 C   0  0  0  0  0  0  0  0  0  0  0  0
   -1.8032    0.6902    0.3278 C   0  0  0  0  0  0  0  0  0  0  0  0
   -2.9475    1.0995   -0.3663 C   0  0  0  0  0  0  0  0  0  0  0  0
   -3.8973    0.1750   -0.7122 C   0  0  0  0  0  0  0  0  0  0  0  0
   -3.6559   -1.1313   -0.3433 C   0  0  0  0  0  0  0  0  0  0  0  0
   -2.5351   -1.5339    0.3360 C   0  0  0  0  0  0  0  0  0  0  0  0
    2.3542   -0.8874   -0.8943 N   0  0  0  0  0  0  0  0  0  0  0  0
    3.7143    1.1095   -1.6131 H   0  0  0  0  0  0  0  0  0  0  0  0
    4.0032    1.8439    0.0288 H   0  0  0  0  0  0  0  0  0  0  0  0
    2.4539    2.1493   -0.8279 H   0  0  0  0  0  0  0  0  0  0  0  0
    3.3522   -0.1799    0.7794 H   0  0  0  0  0  0  0  0  0  0  0  0
    0.7361    0.9955   -0.1346 H   0  0  0  0  0  0  0  0  0  0  0  0
    1.6024    1.4220    1.4043 H   0  0  0  0  0  0  0  0  0  0  0  0
    1.5909   -1.2141    1.8916 H   0  0  0  0  0  0  0  0  0  0  0  0
   -0.4852   -2.1011    1.8349 H   0  0  0  0  0  0  0  0  0  0  0  0
   -1.1420    1.4926    0.6019 H   0  0  0  0  0  0  0  0  0  0  0  0
   -3.0960    2.1335   -0.6350 H   0  0  0  0  0  0  0  0  0  0  0  0
   -4.7779    0.4977   -1.2480 H   0  0  0  0  0  0  0  0  0  0  0  0
   -4.3768   -1.8919   -0.5971 H   0  0  0  0  0  0  0  0  0  0  0  0
   -2.4278   -2.5947    0.5877 H   0  0  0  0  0  0  0  0  0  0  0  0
    2.0102   -0.4965   -1.8046 H   0  0  0  0  0  0  0  0  0  0  0  0
    3.2447   -1.4206   -1.0023 H   0  0  0  0  0  0  0  0  0  0  0  0
  1  2  1  0
  2  3  1  0
  3  4  1  0
  4  5  2  0
  5  6  1  0
  6  7  2  0
  7  8  1  0
  8  9  2  0
  9 10  1  0
 10 11  2  0
  2 12  1  0
 11  6  1  0
  1 13  1  0
  1 14  1  0
  1 15  1  0
  2 16  1  1
  3 17  1  0
  3 18  1  0
  4 19  1  0
  5 20  1  0
  7 21  1  0
  8 22  1  0
  9 23  1  0
 10 24  1  0
 11 25  1  0
 12 26  1  0
 12 27  1  0
M  END
>  <Ligand ID>  (1) 
LIG0005194

>  <Ligand>  (1) 
CHEMBL3963971

>  <SMILES>  (1) 
C[C@@H](C/C=C\c1ccccc1)N

>  <CID>  (1) 
132118109.0

>  <ChEMBL ID>  (1) 
nan

>  <InChiKey>  (1) 
LLHJXESMOGGFAI-BSKOKIOFSA-N

>  <InChi>  (1) 
InChI=1S/C11H15N/c1-10(12)6-5-9-11-7-3-2-4-8-11/h2-5,7-10H,6,12H2,1H3/b9-5-/t10-/m0/s1

>  <IUPAC Name>  (1) 
(Z,2S)-5-phenylpent-4-en-2-amine

$$$$
