
     RDKit          3D

 58 60  0  0  0  0  0  0  0  0999 V2000
    8.3589    1.9379    0.2182 O   0  0  0  0  0  0  0  0  0  0  0  0
    7.2669    1.3902   -0.4380 C   0  0  0  0  0  0  0  0  0  0  0  0
    7.1249    1.5131   -1.6850 O   0  0  0  0  0  0  0  0  0  0  0  0
    6.2817    0.6548    0.4136 C   0  0  0  0  0  0  0  0  0  0  0  0
    5.1394    0.1089   -0.4293 C   0  0  0  0  0  0  0  0  0  0  0  0
    4.1960   -0.6164    0.5121 C   0  0  1  0  0  0  0  0  0  0  0  0
    3.6643    0.3209    1.5535 C   0  0  0  0  0  0  0  0  0  0  0  0
    2.1880    0.1651    1.8129 C   0  0  0  0  0  0  0  0  0  0  0  0
    1.4389    0.8291    0.7073 C   0  0  0  0  0  0  0  0  0  0  0  0
    1.1936   -0.0341   -0.4955 C   0  0  1  0  0  0  0  0  0  0  0  0
    2.4612   -0.6560   -1.0342 C   0  0  1  0  0  0  0  0  0  0  0  0
    3.2159   -1.3339   -0.1419 O   0  0  0  0  0  0  0  0  0  0  0  0
    1.8644   -1.6458   -2.0187 C   0  0  0  0  0  0  0  0  0  0  0  0
    0.7562   -2.2737   -1.2157 C   0  0  2  0  0  0  0  0  0  0  0  0
    0.2802   -1.1902   -0.2704 C   0  0  2  0  0  0  0  0  0  0  0  0
   -1.1539   -0.9059   -0.3669 C   0  0  0  0  0  0  0  0  0  0  0  0
   -1.7080    0.2557   -0.6277 C   0  0  0  0  0  0  0  0  0  0  0  0
   -3.1807    0.4868   -0.7141 C   0  0  2  0  0  0  0  0  0  0  0  0
   -3.9442   -0.7879   -0.5322 C   0  0  0  0  0  0  0  0  0  0  0  0
   -5.2901   -0.6661   -0.7470 O   0  0  0  0  0  0  0  0  0  0  0  0
   -6.1995    0.0650   -0.0609 C   0  0  0  0  0  0  0  0  0  0  0  0
   -7.5237    0.0254   -0.5279 C   0  0  0  0  0  0  0  0  0  0  0  0
   -8.5357    0.7232    0.0862 C   0  0  0  0  0  0  0  0  0  0  0  0
   -8.3097    1.5046    1.1988 C   0  0  0  0  0  0  0  0  0  0  0  0
   -7.0183    1.5569    1.6732 C   0  0  0  0  0  0  0  0  0  0  0  0
   -5.9897    0.8447    1.0459 C   0  0  0  0  0  0  0  0  0  0  0  0
   -3.4001    0.8733   -2.0631 O   0  0  0  0  0  0  0  0  0  0  0  0
    1.2977   -3.3459   -0.5114 O   0  0  0  0  0  0  0  0  0  0  0  0
    8.9611    2.6354   -0.2401 H   0  0  0  0  0  0  0  0  0  0  0  0
    6.8686   -0.2036    0.8518 H   0  0  0  0  0  0  0  0  0  0  0  0
    5.9171    1.2626    1.2535 H   0  0  0  0  0  0  0  0  0  0  0  0
    5.5413   -0.6479   -1.1287 H   0  0  0  0  0  0  0  0  0  0  0  0
    4.6809    0.9893   -0.9137 H   0  0  0  0  0  0  0  0  0  0  0  0
    4.8275   -1.3662    1.0384 H   0  0  0  0  0  0  0  0  0  0  0  0
    4.1543    0.1556    2.5579 H   0  0  0  0  0  0  0  0  0  0  0  0
    3.8569    1.3966    1.3256 H   0  0  0  0  0  0  0  0  0  0  0  0
    1.9897    0.7574    2.7533 H   0  0  0  0  0  0  0  0  0  0  0  0
    1.9401   -0.8741    2.0171 H   0  0  0  0  0  0  0  0  0  0  0  0
    0.4668    1.2332    1.0391 H   0  0  0  0  0  0  0  0  0  0  0  0
    2.0339    1.7009    0.3545 H   0  0  0  0  0  0  0  0  0  0  0  0
    0.8132    0.6162   -1.3080 H   0  0  0  0  0  0  0  0  0  0  0  0
    2.9772    0.0883   -1.6541 H   0  0  0  0  0  0  0  0  0  0  0  0
    1.4361   -1.0430   -2.8513 H   0  0  0  0  0  0  0  0  0  0  0  0
    2.6123   -2.3806   -2.3746 H   0  0  0  0  0  0  0  0  0  0  0  0
   -0.0904   -2.6110   -1.8704 H   0  0  0  0  0  0  0  0  0  0  0  0
    0.4722   -1.5559    0.7751 H   0  0  0  0  0  0  0  0  0  0  0  0
   -1.8409   -1.7490   -0.2049 H   0  0  0  0  0  0  0  0  0  0  0  0
   -1.0746    1.1083   -0.7919 H   0  0  0  0  0  0  0  0  0  0  0  0
   -3.4981    1.3442   -0.1217 H   0  0  0  0  0  0  0  0  0  0  0  0
   -3.5326   -1.5000   -1.3094 H   0  0  0  0  0  0  0  0  0  0  0  0
   -3.6967   -1.2528    0.4681 H   0  0  0  0  0  0  0  0  0  0  0  0
   -7.7746   -0.5789   -1.4121 H   0  0  0  0  0  0  0  0  0  0  0  0
   -9.5636    0.6932   -0.2753 H   0  0  0  0  0  0  0  0  0  0  0  0
   -9.0970    2.0435    1.6705 H   0  0  0  0  0  0  0  0  0  0  0  0
   -6.7916    2.1678    2.5588 H   0  0  0  0  0  0  0  0  0  0  0  0
   -5.0268    0.9337    1.4990 H   0  0  0  0  0  0  0  0  0  0  0  0
   -3.0913    0.0957   -2.6060 H   0  0  0  0  0  0  0  0  0  0  0  0
    1.0549   -3.2586    0.4449 H   0  0  0  0  0  0  0  0  0  0  0  0
  1  2  1  0
  2  3  2  0
  2  4  1  0
  4  5  1  0
  5  6  1  0
  6  7  1  0
  7  8  1  0
  8  9  1  0
  9 10  1  0
 10 11  1  0
 11 12  1  0
 11 13  1  0
 13 14  1  0
 14 15  1  0
 15 16  1  0
 16 17  2  0
 17 18  1  0
 18 19  1  0
 19 20  1  0
 20 21  1  0
 21 22  2  0
 22 23  1  0
 23 24  2  0
 24 25  1  0
 25 26  2  0
 18 27  1  0
 14 28  1  0
 12  6  1  0
 26 21  1  0
 15 10  1  0
  1 29  1  0
  4 30  1  0
  4 31  1  0
  5 32  1  0
  5 33  1  0
  6 34  1  1
  7 35  1  0
  7 36  1  0
  8 37  1  0
  8 38  1  0
  9 39  1  0
  9 40  1  0
 10 41  1  6
 11 42  1  6
 13 43  1  0
 13 44  1  0
 14 45  1  6
 15 46  1  1
 16 47  1  0
 17 48  1  0
 18 49  1  1
 19 50  1  0
 19 51  1  0
 22 52  1  0
 23 53  1  0
 24 54  1  0
 25 55  1  0
 26 56  1  0
 27 57  1  0
 28 58  1  0
M  END
>  <Ligand ID>  (1) 
LIG0002893

>  <Ligand>  (1) 
CHEMBL3920347

>  <SMILES>  (1) 
OC(=O)CC[C@H]1CCC[C@H]2[C@@H](O1)C[C@H]([C@@H]2/C=C/[C@H](COc1ccccc1)O)O

>  <CID>  (1) 
68749474.0

>  <ChEMBL ID>  (1) 
nan

>  <InChiKey>  (1) 
CYLHGVYASRLHMY-OVCPVMRKSA-N

>  <InChi>  (1) 
InChI=1S/C22H30O6/c23-15(14-27-16-5-2-1-3-6-16)9-11-18-19-8-4-7-17(10-12-22(25)26)28-21(19)13-20(18)24/h1-3,5-6,9,11,15,17-21,23-24H,4,7-8,10,12-14H2,(H,25,26)/b11-9+/t15-,17-,18-,19-,20-,21+/m1/s1

>  <IUPAC Name>  (1) 
3-[(2R,5aR,6R,7R,8aS)-7-hydroxy-6-[(E,3R)-3-hydroxy-4-phenoxybut-1-enyl]-3,4,5,5a,6,7,8,8a-octahydro-2H-cyclopenta[b]oxepin-2-yl]propanoic acid

$$$$
