
     RDKit          3D

 39 41  0  0  0  0  0  0  0  0999 V2000
   -1.6851    3.3017   -0.8721 C   0  0  0  0  0  0  0  0  0  0  0  0
   -1.4465    2.8609    0.5547 C   0  0  0  0  0  0  0  0  0  0  0  0
   -1.1388    1.3762    0.4956 C   0  0  0  0  0  0  0  0  0  0  0  0
    0.0317    1.0521    0.8228 N   0  0  0  0  0  0  0  0  0  0  0  0
    0.5751   -0.1897    0.8632 N   0  0  0  0  0  0  0  0  0  0  0  0
    1.5792   -0.5515   -0.0797 C   0  0  0  0  0  0  0  0  0  0  0  0
    1.3622   -0.6437   -1.4317 C   0  0  0  0  0  0  0  0  0  0  0  0
    2.4332   -1.0223   -2.2159 C   0  0  0  0  0  0  0  0  0  0  0  0
    3.6405   -1.2891   -1.6681 N   0  0  0  0  0  0  0  0  0  0  0  0
    3.8947   -1.2112   -0.3519 C   0  0  0  0  0  0  0  0  0  0  0  0
    2.8362   -0.8319    0.4658 C   0  0  0  0  0  0  0  0  0  0  0  0
    3.0777   -0.7524    1.8184 C   0  0  0  0  0  0  0  0  0  0  0  0
    4.3303   -1.0387    2.3579 C   0  0  0  0  0  0  0  0  0  0  0  0
    5.3633   -1.4134    1.5187 C   0  0  0  0  0  0  0  0  0  0  0  0
    5.1491   -1.5013    0.1559 C   0  0  0  0  0  0  0  0  0  0  0  0
    6.9444   -1.7809    2.1568 Cl  0  0  0  0  0  0  0  0  0  0  0  0
   -2.2168    0.5324    0.0188 C   0  0  0  0  0  0  0  0  0  0  0  0
   -2.1094   -0.8111   -0.2335 C   0  0  0  0  0  0  0  0  0  0  0  0
   -3.1863   -1.5976   -0.6491 C   0  0  0  0  0  0  0  0  0  0  0  0
   -4.4337   -1.0567   -0.8312 C   0  0  0  0  0  0  0  0  0  0  0  0
   -4.5634    0.2988   -0.5816 C   0  0  0  0  0  0  0  0  0  0  0  0
   -3.4996    1.0720   -0.1712 C   0  0  0  0  0  0  0  0  0  0  0  0
   -5.5295   -1.7939   -1.2412 O   0  0  0  0  0  0  0  0  0  0  0  0
   -2.5705    3.9898   -0.9031 H   0  0  0  0  0  0  0  0  0  0  0  0
   -1.9409    2.4222   -1.4920 H   0  0  0  0  0  0  0  0  0  0  0  0
   -0.7778    3.8238   -1.2737 H   0  0  0  0  0  0  0  0  0  0  0  0
   -0.5520    3.3784    0.9150 H   0  0  0  0  0  0  0  0  0  0  0  0
   -2.3338    3.0294    1.2045 H   0  0  0  0  0  0  0  0  0  0  0  0
    0.3075   -0.9287    1.5811 H   0  0  0  0  0  0  0  0  0  0  0  0
    0.3788   -0.4197   -1.8250 H   0  0  0  0  0  0  0  0  0  0  0  0
    2.3074   -1.1068   -3.2869 H   0  0  0  0  0  0  0  0  0  0  0  0
    2.2705   -0.4572    2.5058 H   0  0  0  0  0  0  0  0  0  0  0  0
    4.5180   -0.9736    3.4338 H   0  0  0  0  0  0  0  0  0  0  0  0
    5.9681   -1.7941   -0.4804 H   0  0  0  0  0  0  0  0  0  0  0  0
   -1.1798   -1.3375   -0.1339 H   0  0  0  0  0  0  0  0  0  0  0  0
   -3.0595   -2.6560   -0.8357 H   0  0  0  0  0  0  0  0  0  0  0  0
   -5.5552    0.7170   -0.7294 H   0  0  0  0  0  0  0  0  0  0  0  0
   -3.7144    2.1157    0.0079 H   0  0  0  0  0  0  0  0  0  0  0  0
   -5.4748   -2.8116   -1.1577 H   0  0  0  0  0  0  0  0  0  0  0  0
  1  2  1  0
  2  3  1  0
  3  4  2  3
  4  5  1  0
  5  6  1  0
  6  7  2  0
  7  8  1  0
  8  9  2  0
  9 10  1  0
 10 11  2  0
 11 12  1  0
 12 13  2  0
 13 14  1  0
 14 15  2  0
 14 16  1  0
  3 17  1  0
 17 18  2  0
 18 19  1  0
 19 20  2  0
 20 21  1  0
 21 22  2  0
 20 23  1  0
 11  6  1  0
 22 17  1  0
 15 10  1  0
  1 24  1  0
  1 25  1  0
  1 26  1  0
  2 27  1  0
  2 28  1  0
  5 29  1  0
  7 30  1  0
  8 31  1  0
 12 32  1  0
 13 33  1  0
 15 34  1  0
 18 35  1  0
 19 36  1  0
 21 37  1  0
 22 38  1  0
 23 39  1  0
M  END
>  <Ligand ID>  (1) 
LIG0004034

>  <Ligand>  (1) 
SCHEMBL8496800

>  <SMILES>  (1) 
CCC(=NNc1ccnc2c1ccc(c2)Cl)c1ccc(cc1)O

>  <CID>  (1) 
4206984.0

>  <ChEMBL ID>  (1) 
nan

>  <InChiKey>  (1) 
WOZNDRYNJWTXRL-UHFFFAOYSA-N

>  <InChi>  (1) 
InChI=1S/C18H16ClN3O/c1-2-16(12-3-6-14(23)7-4-12)21-22-17-9-10-20-18-11-13(19)5-8-15(17)18/h3-11,23H,2H2,1H3,(H,20,22)

>  <IUPAC Name>  (1) 
4-[N-[(7-chloroquinolin-4-yl)amino]-C-ethylcarbonimidoyl]phenol

$$$$
