
     RDKit          3D

 24 25  0  0  0  0  0  0  0  0999 V2000
   -3.3878    1.0219    1.1223 N   0  0  0  0  0  0  0  0  0  0  0  0
   -2.9874    0.0053    0.1704 C   0  0  0  0  0  0  0  0  0  0  0  0
   -1.5656    0.1888   -0.2927 C   0  0  2  0  0  0  0  0  0  0  0  0
   -1.1374   -0.8760   -1.2935 C   0  0  0  0  0  0  0  0  0  0  0  0
   -0.4930   -0.7403    0.0590 C   0  0  1  0  0  0  0  0  0  0  0  0
    0.9092   -0.2499    0.0878 C   0  0  0  0  0  0  0  0  0  0  0  0
    1.2577    1.0716    0.1753 C   0  0  0  0  0  0  0  0  0  0  0  0
    2.6092    1.4218    0.1949 C   0  0  0  0  0  0  0  0  0  0  0  0
    3.5952    0.4744    0.1286 C   0  0  0  0  0  0  0  0  0  0  0  0
    3.2401   -0.8699    0.0395 C   0  0  0  0  0  0  0  0  0  0  0  0
    1.9071   -1.2255    0.0195 C   0  0  0  0  0  0  0  0  0  0  0  0
    1.4635   -3.0676   -0.1026 Br  0  0  0  0  0  0  0  0  0  0  0  0
   -3.0179    0.8857    2.0763 H   0  0  0  0  0  0  0  0  0  0  0  0
   -3.1603    1.9494    0.7037 H   0  0  0  0  0  0  0  0  0  0  0  0
   -3.6253    0.1796   -0.7411 H   0  0  0  0  0  0  0  0  0  0  0  0
   -3.2102   -1.0079    0.5040 H   0  0  0  0  0  0  0  0  0  0  0  0
   -1.3000    1.2392   -0.5255 H   0  0  0  0  0  0  0  0  0  0  0  0
   -0.6604   -0.4816   -2.2064 H   0  0  0  0  0  0  0  0  0  0  0  0
   -1.7814   -1.7479   -1.4742 H   0  0  0  0  0  0  0  0  0  0  0  0
   -0.6401   -1.6082    0.7306 H   0  0  0  0  0  0  0  0  0  0  0  0
    0.5062    1.8128    0.2273 H   0  0  0  0  0  0  0  0  0  0  0  0
    2.8115    2.4948    0.2662 H   0  0  0  0  0  0  0  0  0  0  0  0
    4.6490    0.7764    0.1457 H   0  0  0  0  0  0  0  0  0  0  0  0
    4.0179   -1.6470   -0.0148 H   0  0  0  0  0  0  0  0  0  0  0  0
  1  2  1  0
  2  3  1  0
  3  4  1  0
  4  5  1  0
  5  6  1  0
  6  7  2  0
  7  8  1  0
  8  9  2  0
  9 10  1  0
 10 11  2  0
 11 12  1  0
  5  3  1  0
 11  6  1  0
  1 13  1  0
  1 14  1  0
  2 15  1  0
  2 16  1  0
  3 17  1  6
  4 18  1  0
  4 19  1  0
  5 20  1  1
  7 21  1  0
  8 22  1  0
  9 23  1  0
 10 24  1  0
M  END
>  <Ligand ID>  (1) 
LIG0005719

>  <Ligand>  (1) 
CHEMBL509418

>  <SMILES>  (1) 
NC[C@@H]1C[C@H]1c1ccccc1Br

>  <CID>  (1) 
44572753.0

>  <ChEMBL ID>  (1) 
nan

>  <InChiKey>  (1) 
WYOKWGHFWKWDEZ-IONNQARKSA-N

>  <InChi>  (1) 
InChI=1S/C10H12BrN/c11-10-4-2-1-3-8(10)9-5-7(9)6-12/h1-4,7,9H,5-6,12H2/t7-,9+/m0/s1

>  <IUPAC Name>  (1) 
[(1R,2R)-2-(2-bromophenyl)cyclopropyl]methanamine

$$$$
