
     RDKit          3D

 48 48  0  0  0  0  0  0  0  0999 V2000
   -4.4578   -4.7961    0.2650 O   0  0  0  0  0  0  0  0  0  0  0  0
   -4.4214   -3.4328    0.0057 C   0  0  0  0  0  0  0  0  0  0  0  0
   -5.4844   -2.8407   -0.3335 O   0  0  0  0  0  0  0  0  0  0  0  0
   -3.1504   -2.6359    0.1166 C   0  0  0  0  0  0  0  0  0  0  0  0
   -3.4831   -1.3220   -0.2105 O   0  0  0  0  0  0  0  0  0  0  0  0
   -2.6093   -0.2641   -0.2341 C   0  0  0  0  0  0  0  0  0  0  0  0
   -1.2810   -0.4724    0.0855 C   0  0  0  0  0  0  0  0  0  0  0  0
   -0.3490    0.5548    0.0801 C   0  0  0  0  0  0  0  0  0  0  0  0
   -0.8005    1.8077   -0.2601 C   0  0  0  0  0  0  0  0  0  0  0  0
   -2.1326    2.0097   -0.5795 C   0  0  0  0  0  0  0  0  0  0  0  0
   -3.0602    0.9934   -0.5750 C   0  0  0  0  0  0  0  0  0  0  0  0
   -4.3902    1.1365   -0.8811 O   0  0  0  0  0  0  0  0  0  0  0  0
   -5.0475    2.3273   -1.2387 C   0  0  0  0  0  0  0  0  0  0  0  0
   -4.9882    3.3377   -0.1761 C   0  0  0  0  0  0  0  0  0  0  0  0
   -4.4501    3.1813    0.9480 O   0  0  0  0  0  0  0  0  0  0  0  0
   -5.5739    4.5777   -0.4226 O   0  0  0  0  0  0  0  0  0  0  0  0
    1.0743    0.2866    0.4316 C   0  0  0  0  0  0  0  0  0  0  0  0
    1.9222   -0.6027   -0.9026 P   0  0  0  0  0  0  0  0  0  0  0  0
    1.7108    0.1161   -2.2347 O   0  0  0  0  0  0  0  0  0  0  0  0
    3.7032   -0.5254   -0.5607 C   0  0  0  0  0  0  0  0  0  0  0  0
    3.8869   -0.4345    0.9260 C   0  0  0  0  0  0  0  0  0  0  0  0
    5.3390   -0.3635    1.3451 C   0  0  2  0  0  0  0  0  0  0  0  0
    5.9606    0.8369    0.7391 C   0  0  0  0  0  0  0  0  0  0  0  0
    6.9982    0.6840    0.0452 O   0  0  0  0  0  0  0  0  0  0  0  0
    5.4072    2.0944    0.9360 O   0  0  0  0  0  0  0  0  0  0  0  0
    6.0709   -1.5453    1.0140 N   0  0  0  0  0  0  0  0  0  0  0  0
    1.3708   -2.2001   -1.0032 O   0  0  0  0  0  0  0  0  0  0  0  0
    1.1604   -0.5254    1.5758 O   0  0  0  0  0  0  0  0  0  0  0  0
   -5.2399   -5.3639   -0.0932 H   0  0  0  0  0  0  0  0  0  0  0  0
   -2.4292   -3.1163   -0.5821 H   0  0  0  0  0  0  0  0  0  0  0  0
   -2.7663   -2.7852    1.1443 H   0  0  0  0  0  0  0  0  0  0  0  0
   -0.9591   -1.4802    0.3504 H   0  0  0  0  0  0  0  0  0  0  0  0
   -0.0835    2.6116   -0.2670 H   0  0  0  0  0  0  0  0  0  0  0  0
   -2.4214    3.0029   -0.8414 H   0  0  0  0  0  0  0  0  0  0  0  0
   -4.6566    2.7183   -2.2178 H   0  0  0  0  0  0  0  0  0  0  0  0
   -6.1080    2.0170   -1.4721 H   0  0  0  0  0  0  0  0  0  0  0  0
   -5.8790    5.1957    0.3183 H   0  0  0  0  0  0  0  0  0  0  0  0
    1.6078    1.2295    0.5942 H   0  0  0  0  0  0  0  0  0  0  0  0
    4.1311   -1.5087   -0.9146 H   0  0  0  0  0  0  0  0  0  0  0  0
    4.2073    0.3009   -1.1055 H   0  0  0  0  0  0  0  0  0  0  0  0
    3.3636    0.4657    1.3084 H   0  0  0  0  0  0  0  0  0  0  0  0
    3.3660   -1.3011    1.3726 H   0  0  0  0  0  0  0  0  0  0  0  0
    5.3535   -0.2057    2.4387 H   0  0  0  0  0  0  0  0  0  0  0  0
    5.8950    2.9491    0.6542 H   0  0  0  0  0  0  0  0  0  0  0  0
    5.5372   -2.3981    1.2397 H   0  0  0  0  0  0  0  0  0  0  0  0
    6.5543   -1.5271    0.1047 H   0  0  0  0  0  0  0  0  0  0  0  0
    1.2327   -2.4189   -1.9587 H   0  0  0  0  0  0  0  0  0  0  0  0
    0.3697   -0.3688    2.1332 H   0  0  0  0  0  0  0  0  0  0  0  0
  1  2  1  0
  2  3  2  0
  2  4  1  0
  4  5  1  0
  5  6  1  0
  6  7  2  0
  7  8  1  0
  8  9  2  0
  9 10  1  0
 10 11  2  0
 11 12  1  0
 12 13  1  0
 13 14  1  0
 14 15  2  0
 14 16  1  0
  8 17  1  0
 17 18  1  0
 18 19  2  0
 18 20  1  0
 20 21  1  0
 21 22  1  0
 22 23  1  0
 23 24  2  0
 23 25  1  0
 22 26  1  0
 18 27  1  0
 17 28  1  0
 11  6  1  0
  1 29  1  0
  4 30  1  0
  4 31  1  0
  7 32  1  0
  9 33  1  0
 10 34  1  0
 13 35  1  0
 13 36  1  0
 16 37  1  0
 17 38  1  0
 20 39  1  0
 20 40  1  0
 21 41  1  0
 21 42  1  0
 22 43  1  1
 25 44  1  0
 26 45  1  0
 26 46  1  0
 27 47  1  0
 28 48  1  0
M  END
>  <Ligand ID>  (1) 
LIG0005783

>  <Ligand>  (1) 
US9212196, Derivative 18

>  <SMILES>  (1) 
OC(=O)COc1cc(ccc1OCC(=O)O)C(P(=O)(CC[C@H](C(=O)O)N)O)O

>  <CID>  (1) 
122197948.0

>  <ChEMBL ID>  (1) 
nan

>  <InChiKey>  (1) 
LIXSYEXTLWDJIL-WXMRUQJCSA-N

>  <InChi>  (1) 
InChI=1S/C15H20NO11P/c16-9(14(21)22)3-4-28(24,25)15(23)8-1-2-10(26-6-12(17)18)11(5-8)27-7-13(19)20/h1-2,5,9,15,23H,3-4,6-7,16H2,(H,17,18)(H,19,20)(H,21,22)(H,24,25)/t9-,15?/m1/s1

>  <IUPAC Name>  (1) 
(2R)-2-amino-4-[[[3,4-bis(carboxymethoxy)phenyl]-hydroxymethyl]-hydroxyphosphoryl]butanoic acid

$$$$
