
     RDKit          3D

 20 19  0  0  0  0  0  0  0  0999 V2000
    3.6219   -0.4581   -0.8613 O   0  0  0  0  0  0  0  0  0  0  0  0
    2.6821   -0.0564    0.4987 P   0  0  0  0  0  0  0  0  0  0  0  0
    2.4074   -1.3704    1.2049 O   0  0  0  0  0  0  0  0  0  0  0  0
    1.1419    0.7718   -0.0206 C   0  0  0  0  0  0  0  0  0  0  0  0
    0.0256   -0.1921    0.2485 C   0  0  0  0  0  0  0  0  0  0  0  0
   -1.3419    0.3152   -0.1183 C   0  0  1  0  0  0  0  0  0  0  0  0
   -2.3163   -0.7739    0.2188 C   0  0  0  0  0  0  0  0  0  0  0  0
   -3.2371   -0.6343    1.0354 O   0  0  0  0  0  0  0  0  0  0  0  0
   -2.2082   -2.0281   -0.4046 O   0  0  0  0  0  0  0  0  0  0  0  0
   -1.7219    1.4647    0.6838 N   0  0  0  0  0  0  0  0  0  0  0  0
    3.0466   -0.3800   -1.6673 H   0  0  0  0  0  0  0  0  0  0  0  0
    3.4004    0.7299    1.4075 H   0  0  0  0  0  0  0  0  0  0  0  0
    1.2077    0.9738   -1.1106 H   0  0  0  0  0  0  0  0  0  0  0  0
    1.0333    1.7186    0.5493 H   0  0  0  0  0  0  0  0  0  0  0  0
    0.2261   -1.0882   -0.3787 H   0  0  0  0  0  0  0  0  0  0  0  0
    0.0633   -0.5385    1.2922 H   0  0  0  0  0  0  0  0  0  0  0  0
   -1.4251    0.5490   -1.1776 H   0  0  0  0  0  0  0  0  0  0  0  0
   -2.4100   -2.8940    0.0923 H   0  0  0  0  0  0  0  0  0  0  0  0
   -2.7562    1.5239    0.8195 H   0  0  0  0  0  0  0  0  0  0  0  0
   -1.4397    2.3672    0.2020 H   0  0  0  0  0  0  0  0  0  0  0  0
  1  2  1  0
  2  3  2  0
  2  4  1  0
  4  5  1  0
  5  6  1  0
  6  7  1  0
  7  8  2  0
  7  9  1  0
  6 10  1  0
  1 11  1  0
  2 12  1  0
  4 13  1  0
  4 14  1  0
  5 15  1  0
  5 16  1  0
  6 17  1  6
  9 18  1  0
 10 19  1  0
 10 20  1  0
M  END
>  <Ligand ID>  (1) 
LIG0001083

>  <Ligand>  (1) 
demethylphosphinothricin

>  <SMILES>  (1) 
OP(=O)CC[C@@H](C(=O)O)N

>  <CID>  (1) 
158745.0

>  <ChEMBL ID>  (1) 
nan

>  <InChiKey>  (1) 
IDBRULKICVRMNG-VKHMYHEASA-N

>  <InChi>  (1) 
InChI=1S/C4H10NO4P/c5-3(4(6)7)1-2-10(8)9/h3,10H,1-2,5H2,(H,6,7)(H,8,9)/t3-/m0/s1

>  <IUPAC Name>  (1) 
(2S)-2-amino-4-hydroxyphosphonoylbutanoic acid

$$$$
