
     RDKit          3D

 84 88  0  0  0  0  0  0  0  0999 V2000
   -6.4177   -0.4238    1.8308 O   0  0  0  0  0  0  0  0  0  0  0  0
   -7.0186    0.6260    2.1063 C   0  0  0  0  0  0  0  0  0  0  0  0
   -8.0688    0.4553    3.1103 N   0  0  0  0  0  0  0  0  0  0  0  0
   -8.2826   -1.1495    3.7238 S   0  0  0  0  0  0  0  0  0  0  0  0
   -6.9642   -1.8362    3.7003 O   0  0  0  0  0  0  0  0  0  0  0  0
   -8.7792   -1.0314    5.1501 O   0  0  0  0  0  0  0  0  0  0  0  0
   -9.4750   -1.9803    2.7109 C   0  0  0  0  0  0  0  0  0  0  0  0
   -9.6182   -3.2521    3.2282 F   0  0  0  0  0  0  0  0  0  0  0  0
   -8.9306   -2.0534    1.4307 F   0  0  0  0  0  0  0  0  0  0  0  0
  -10.6593   -1.3059    2.6450 F   0  0  0  0  0  0  0  0  0  0  0  0
   -6.8464    1.9691    1.5992 C   0  0  0  0  0  0  0  0  0  0  0  0
   -5.7215    2.2966    0.6827 C   0  0  0  0  0  0  0  0  0  0  0  0
   -5.6244    1.5272   -0.5498 C   0  0  0  0  0  0  0  0  0  0  0  0
   -6.5124    1.8718   -1.5815 C   0  0  0  0  0  0  0  0  0  0  0  0
   -6.6043    1.1143   -2.7242 C   0  0  0  0  0  0  0  0  0  0  0  0
   -7.3868    1.2409   -3.8650 O   0  0  0  0  0  0  0  0  0  0  0  0
   -7.3886    0.0400   -4.5911 C   0  0  0  0  0  0  0  0  0  0  0  0
   -6.1642   -0.5540   -4.1622 O   0  0  0  0  0  0  0  0  0  0  0  0
   -5.8435   -0.0116   -2.9257 C   0  0  0  0  0  0  0  0  0  0  0  0
   -4.9644   -0.3592   -1.9195 C   0  0  0  0  0  0  0  0  0  0  0  0
   -4.8568    0.4054   -0.7476 C   0  0  0  0  0  0  0  0  0  0  0  0
   -3.7386    0.0030    0.1578 C   0  0  0  0  0  0  0  0  0  0  0  0
   -2.4833    0.5544   -0.1427 N   0  0  0  0  0  0  0  0  0  0  0  0
   -2.2352    1.9051   -0.2926 C   0  0  0  0  0  0  0  0  0  0  0  0
   -1.4038    2.0828   -1.5667 C   0  0  0  0  0  0  0  0  0  0  0  0
   -0.9005    0.7186   -1.8914 C   0  0  0  0  0  0  0  0  0  0  0  0
   -1.5889   -0.2164   -0.9141 C   0  0  1  0  0  0  0  0  0  0  0  0
   -0.5414   -0.7750   -0.0132 C   0  0  0  0  0  0  0  0  0  0  0  0
   -0.8089   -1.2197    1.2021 O   0  0  0  0  0  0  0  0  0  0  0  0
    0.2728   -1.6617    1.7979 C   0  0  0  0  0  0  0  0  0  0  0  0
    1.3242   -1.4955    0.9104 C   0  0  0  0  0  0  0  0  0  0  0  0
    0.7768   -0.9373   -0.2128 N   0  0  0  0  0  0  0  0  0  0  0  0
    2.7147   -1.8444    1.1573 C   0  0  0  0  0  0  0  0  0  0  0  0
    3.0028   -2.2678    2.3106 O   0  0  0  0  0  0  0  0  0  0  0  0
    3.6999   -1.7154    0.1501 N   0  0  0  0  0  0  0  0  0  0  0  0
    5.0816   -2.0660    0.4233 C   0  0  0  0  0  0  0  0  0  0  0  0
    5.9699   -1.8854   -0.7545 C   0  0  0  0  0  0  0  0  0  0  0  0
    6.0397   -0.5145   -1.3222 C   0  0  0  0  0  0  0  0  0  0  0  0
    6.5203    0.5573   -0.4117 C   0  0  0  0  0  0  0  0  0  0  0  0
    7.9073    0.3677    0.1319 C   0  0  0  0  0  0  0  0  0  0  0  0
    8.9223    0.2972   -0.9867 C   0  0  0  0  0  0  0  0  0  0  0  0
   10.2138    0.9726   -0.6650 C   0  0  0  0  0  0  0  0  0  0  0  0
   10.5168    0.8006    0.8099 C   0  0  0  0  0  0  0  0  0  0  0  0
    9.5068    1.4989    1.6756 C   0  0  0  0  0  0  0  0  0  0  0  0
    8.1550    1.5925    1.0287 C   0  0  0  0  0  0  0  0  0  0  0  0
   -8.6413    1.2658    3.4220 H   0  0  0  0  0  0  0  0  0  0  0  0
   -6.8291    2.6734    2.5060 H   0  0  0  0  0  0  0  0  0  0  0  0
   -7.8069    2.3288    1.0879 H   0  0  0  0  0  0  0  0  0  0  0  0
   -5.8031    3.3818    0.3734 H   0  0  0  0  0  0  0  0  0  0  0  0
   -4.7912    2.2549    1.3045 H   0  0  0  0  0  0  0  0  0  0  0  0
   -7.1462    2.7611   -1.4767 H   0  0  0  0  0  0  0  0  0  0  0  0
   -8.1945   -0.6521   -4.3289 H   0  0  0  0  0  0  0  0  0  0  0  0
   -7.3942    0.2063   -5.6837 H   0  0  0  0  0  0  0  0  0  0  0  0
   -4.3683   -1.2458   -2.0806 H   0  0  0  0  0  0  0  0  0  0  0  0
   -3.6430   -1.1070    0.1961 H   0  0  0  0  0  0  0  0  0  0  0  0
   -4.0126    0.2684    1.2295 H   0  0  0  0  0  0  0  0  0  0  0  0
   -1.5496    2.2476    0.5455 H   0  0  0  0  0  0  0  0  0  0  0  0
   -3.0788    2.6144   -0.2856 H   0  0  0  0  0  0  0  0  0  0  0  0
   -2.1192    2.4730   -2.3450 H   0  0  0  0  0  0  0  0  0  0  0  0
   -0.6018    2.8331   -1.4516 H   0  0  0  0  0  0  0  0  0  0  0  0
   -1.1316    0.4465   -2.9486 H   0  0  0  0  0  0  0  0  0  0  0  0
    0.2074    0.6922   -1.8058 H   0  0  0  0  0  0  0  0  0  0  0  0
   -2.0522   -1.0385   -1.5212 H   0  0  0  0  0  0  0  0  0  0  0  0
    0.3254   -2.0753    2.7910 H   0  0  0  0  0  0  0  0  0  0  0  0
    3.3974   -1.3620   -0.7841 H   0  0  0  0  0  0  0  0  0  0  0  0
    5.1509   -3.1392    0.7235 H   0  0  0  0  0  0  0  0  0  0  0  0
    5.3910   -1.4983    1.3199 H   0  0  0  0  0  0  0  0  0  0  0  0
    6.9724   -2.3001   -0.4889 H   0  0  0  0  0  0  0  0  0  0  0  0
    5.5797   -2.5551   -1.5658 H   0  0  0  0  0  0  0  0  0  0  0  0
    5.0084   -0.2363   -1.6383 H   0  0  0  0  0  0  0  0  0  0  0  0
    6.6607   -0.5419   -2.2315 H   0  0  0  0  0  0  0  0  0  0  0  0
    5.7907    0.6070    0.4395 H   0  0  0  0  0  0  0  0  0  0  0  0
    6.4450    1.5168   -0.9407 H   0  0  0  0  0  0  0  0  0  0  0  0
    8.0104   -0.5602    0.7291 H   0  0  0  0  0  0  0  0  0  0  0  0
    8.4231    0.7176   -1.8893 H   0  0  0  0  0  0  0  0  0  0  0  0
    9.1271   -0.7812   -1.1839 H   0  0  0  0  0  0  0  0  0  0  0  0
   10.9973    0.4821   -1.2783 H   0  0  0  0  0  0  0  0  0  0  0  0
   10.1513    2.0197   -0.9658 H   0  0  0  0  0  0  0  0  0  0  0  0
   10.5343   -0.2780    1.0563 H   0  0  0  0  0  0  0  0  0  0  0  0
   11.5390    1.2283    0.9684 H   0  0  0  0  0  0  0  0  0  0  0  0
    9.3894    1.0352    2.6758 H   0  0  0  0  0  0  0  0  0  0  0  0
    9.8552    2.5377    1.8363 H   0  0  0  0  0  0  0  0  0  0  0  0
    7.3816    1.5831    1.8095 H   0  0  0  0  0  0  0  0  0  0  0  0
    8.0293    2.5243    0.4462 H   0  0  0  0  0  0  0  0  0  0  0  0
  1  2  2  0
  2  3  1  0
  3  4  1  0
  4  5  2  0
  4  6  2  0
  4  7  1  0
  7  8  1  0
  7  9  1  0
  7 10  1  0
  2 11  1  0
 11 12  1  0
 12 13  1  0
 13 14  2  0
 14 15  1  0
 15 16  1  0
 16 17  1  0
 17 18  1  0
 18 19  1  0
 19 20  1  0
 20 21  2  0
 21 22  1  0
 22 23  1  0
 23 24  1  0
 24 25  1  0
 25 26  1  0
 26 27  1  0
 27 28  1  0
 28 29  1  0
 29 30  1  0
 30 31  2  0
 31 32  1  0
 31 33  1  0
 33 34  2  0
 33 35  1  0
 35 36  1  0
 36 37  1  0
 37 38  1  0
 38 39  1  0
 39 40  1  0
 40 41  1  0
 41 42  1  0
 42 43  1  0
 43 44  1  0
 44 45  1  0
 21 13  1  0
 27 23  1  0
 32 28  2  0
 45 40  1  0
 19 15  2  0
  3 46  1  0
 11 47  1  0
 11 48  1  0
 12 49  1  0
 12 50  1  0
 14 51  1  0
 17 52  1  0
 17 53  1  0
 20 54  1  0
 22 55  1  0
 22 56  1  0
 24 57  1  0
 24 58  1  0
 25 59  1  0
 25 60  1  0
 26 61  1  0
 26 62  1  0
 27 63  1  6
 30 64  1  0
 35 65  1  0
 36 66  1  0
 36 67  1  0
 37 68  1  0
 37 69  1  0
 38 70  1  0
 38 71  1  0
 39 72  1  0
 39 73  1  0
 40 74  1  0
 41 75  1  0
 41 76  1  0
 42 77  1  0
 42 78  1  0
 43 79  1  0
 43 80  1  0
 44 81  1  0
 44 82  1  0
 45 83  1  0
 45 84  1  0
M  END
>  <Ligand ID>  (1) 
LIG0000504

>  <Ligand>  (1) 
CHEMBL3967284

>  <SMILES>  (1) 
O=C(NS(=O)(=O)C(F)(F)F)CCc1cc2OCOc2cc1CN1CCC[C@H]1c1occ(n1)C(=O)NCCCCC1CCCCC1

>  <CID>  (1) 
56839344.0

>  <ChEMBL ID>  (1) 
nan

>  <InChiKey>  (1) 
OYIWYIIDTHEYIY-DEOSSOPVSA-N

>  <InChi>  (1) 
InChI=1S/C30H39F3N4O7S/c31-30(32,33)45(40,41)36-27(38)12-11-21-15-25-26(44-19-43-25)16-22(21)17-37-14-6-10-24(37)29-35-23(18-42-29)28(39)34-13-5-4-9-20-7-2-1-3-8-20/h15-16,18,20,24H,1-14,17,19H2,(H,34,39)(H,36,38)/t24-/m0/s1

>  <IUPAC Name>  (1) 
N-(4-cyclohexylbutyl)-2-[(2S)-1-[[6-[3-oxo-3-(trifluoromethylsulfonylamino)propyl]-1,3-benzodioxol-5-yl]methyl]pyrrolidin-2-yl]-1,3-oxazole-4-carboxamide

$$$$
