
     RDKit          3D

 67 73  0  0  0  0  0  0  0  0999 V2000
    0.3075   -3.1244    2.7243 C   0  0  0  0  0  0  0  0  0  0  0  0
    0.9349   -2.4387    1.6948 O   0  0  0  0  0  0  0  0  0  0  0  0
    0.0863   -1.8163    0.8344 C   0  0  2  0  0  0  0  0  0  0  0  0
   -0.7912   -2.9493    0.2251 C   0  0  0  0  0  0  0  0  0  0  0  0
   -1.8020   -2.4544   -0.5441 C   0  0  0  0  0  0  0  0  0  0  0  0
   -1.6161   -1.0300   -0.9227 C   0  0  2  0  0  0  0  0  0  0  0  0
   -0.2111   -1.0184   -1.5366 C   0  0  0  0  0  0  0  0  0  0  0  0
    0.7676   -1.5114   -0.5062 C   0  0  1  0  0  0  0  0  0  0  0  0
    2.0853   -0.8210   -0.4091 C   0  0  2  0  0  0  0  0  0  0  0  0
    2.6676   -0.5497   -1.6303 O   0  0  0  0  0  0  0  0  0  0  0  0
    3.0275    0.7196   -1.9118 C   0  0  0  0  0  0  0  0  0  0  0  0
    4.0291    1.2867   -0.9866 C   0  0  0  0  0  0  0  0  0  0  0  0
    5.3717    1.0241   -1.2435 C   0  0  0  0  0  0  0  0  0  0  0  0
    6.3792    1.5269   -0.4393 C   0  0  0  0  0  0  0  0  0  0  0  0
    6.0924    2.3179    0.6624 C   0  0  0  0  0  0  0  0  0  0  0  0
    4.7600    2.5718    0.9071 C   0  0  0  0  0  0  0  0  0  0  0  0
    3.7510    2.0668    0.0994 C   0  0  0  0  0  0  0  0  0  0  0  0
    3.1117   -1.6408    0.3600 C   0  0  0  0  0  0  0  0  0  0  0  0
   -1.4190   -0.1224    0.2126 C   0  0  0  0  0  0  0  0  0  0  0  0
   -0.8614   -0.9264    1.3371 C   0  0  2  0  0  0  0  0  0  0  0  0
   -0.9468    0.0952    2.3022 O   0  0  0  0  0  0  0  0  0  0  0  0
   -2.2949    0.4528    2.2363 C   0  0  0  0  0  0  0  0  0  0  0  0
   -2.6491    0.2209    0.9363 C   0  0  0  0  0  0  0  0  0  0  0  0
   -3.8369    0.3778    0.3438 C   0  0  0  0  0  0  0  0  0  0  0  0
   -3.9525   -0.0517   -1.0688 C   0  0  0  0  0  0  0  0  0  0  0  0
   -2.6392   -0.3706   -1.7372 C   0  0  1  0  0  0  0  0  0  0  0  0
   -2.0175    0.8624   -2.2079 N   0  0  0  0  0  0  0  0  0  0  0  0
   -1.7613    1.7874   -1.1570 C   0  0  0  0  0  0  0  0  0  0  0  0
   -0.8898    1.2151   -0.0596 C   0  0  0  0  0  0  0  0  0  0  0  0
   -2.4934    1.3596   -3.4180 C   0  0  0  0  0  0  0  0  0  0  0  0
   -4.8655    0.8506    1.1337 C   0  0  0  0  0  0  0  0  0  0  0  0
   -4.6118    1.1339    2.4976 C   0  0  0  0  0  0  0  0  0  0  0  0
   -3.3205    0.9293    3.0361 C   0  0  0  0  0  0  0  0  0  0  0  0
   -3.0178    1.1855    4.3538 O   0  0  0  0  0  0  0  0  0  0  0  0
   -0.2903   -2.3531    3.2933 H   0  0  0  0  0  0  0  0  0  0  0  0
    1.0841   -3.4438    3.4635 H   0  0  0  0  0  0  0  0  0  0  0  0
   -0.3303   -3.9512    2.4121 H   0  0  0  0  0  0  0  0  0  0  0  0
   -0.6017   -3.9582    0.4017 H   0  0  0  0  0  0  0  0  0  0  0  0
   -2.6355   -3.0529   -0.8329 H   0  0  0  0  0  0  0  0  0  0  0  0
   -0.3121   -1.6675   -2.4317 H   0  0  0  0  0  0  0  0  0  0  0  0
    0.0423   -0.0231   -1.9550 H   0  0  0  0  0  0  0  0  0  0  0  0
    1.1287   -2.5144   -0.9285 H   0  0  0  0  0  0  0  0  0  0  0  0
    2.0186    0.1273    0.1346 H   0  0  0  0  0  0  0  0  0  0  0  0
    3.4159    0.8858   -2.9328 H   0  0  0  0  0  0  0  0  0  0  0  0
    2.1442    1.4243   -1.8465 H   0  0  0  0  0  0  0  0  0  0  0  0
    5.6401    0.4069   -2.0993 H   0  0  0  0  0  0  0  0  0  0  0  0
    7.4177    1.2890   -0.6873 H   0  0  0  0  0  0  0  0  0  0  0  0
    6.8703    2.7106    1.2900 H   0  0  0  0  0  0  0  0  0  0  0  0
    4.4927    3.1961    1.7730 H   0  0  0  0  0  0  0  0  0  0  0  0
    2.7504    2.3268    0.3635 H   0  0  0  0  0  0  0  0  0  0  0  0
    3.1180   -2.7029    0.1021 H   0  0  0  0  0  0  0  0  0  0  0  0
    3.0018   -1.4082    1.4371 H   0  0  0  0  0  0  0  0  0  0  0  0
    4.1068   -1.2343    0.0817 H   0  0  0  0  0  0  0  0  0  0  0  0
   -1.6906   -1.5802    1.7426 H   0  0  0  0  0  0  0  0  0  0  0  0
   -4.4077    0.8005   -1.6159 H   0  0  0  0  0  0  0  0  0  0  0  0
   -4.6575   -0.9133   -1.1221 H   0  0  0  0  0  0  0  0  0  0  0  0
   -2.8615   -0.9673   -2.6426 H   0  0  0  0  0  0  0  0  0  0  0  0
   -1.2352    2.6590   -1.6513 H   0  0  0  0  0  0  0  0  0  0  0  0
   -2.6480    2.2488   -0.6849 H   0  0  0  0  0  0  0  0  0  0  0  0
    0.1263    1.3435   -0.4430 H   0  0  0  0  0  0  0  0  0  0  0  0
   -0.9376    1.8410    0.8565 H   0  0  0  0  0  0  0  0  0  0  0  0
   -3.5138    1.7900   -3.4042 H   0  0  0  0  0  0  0  0  0  0  0  0
   -1.7785    2.1090   -3.8150 H   0  0  0  0  0  0  0  0  0  0  0  0
   -2.5235    0.5481   -4.1714 H   0  0  0  0  0  0  0  0  0  0  0  0
   -5.8340    0.9929    0.6976 H   0  0  0  0  0  0  0  0  0  0  0  0
   -5.3993    1.5071    3.1352 H   0  0  0  0  0  0  0  0  0  0  0  0
   -3.0750    0.4053    4.9999 H   0  0  0  0  0  0  0  0  0  0  0  0
  1  2  1  0
  3  2  1  1
  3  4  1  0
  4  5  2  0
  5  6  1  0
  6  7  1  6
  7  8  1  0
  8  9  1  0
  9 10  1  0
 10 11  1  0
 11 12  1  0
 12 13  2  0
 13 14  1  0
 14 15  2  0
 15 16  1  0
 16 17  2  0
  9 18  1  0
  6 19  1  0
 19 20  1  0
 20 21  1  0
 21 22  1  0
 22 23  2  0
 23 24  1  0
 24 25  1  0
 25 26  1  0
 26 27  1  0
 27 28  1  0
 28 29  1  0
 27 30  1  0
 24 31  2  0
 31 32  1  0
 32 33  2  0
 33 34  1  0
  8  3  1  0
 17 12  1  0
 29 19  1  0
 20  3  1  0
 33 22  1  0
 26  6  1  0
 23 19  1  0
  1 35  1  0
  1 36  1  0
  1 37  1  0
  4 38  1  0
  5 39  1  0
  7 40  1  0
  7 41  1  0
  8 42  1  6
  9 43  1  1
 11 44  1  0
 11 45  1  0
 13 46  1  0
 14 47  1  0
 15 48  1  0
 16 49  1  0
 17 50  1  0
 18 51  1  0
 18 52  1  0
 18 53  1  0
 20 54  1  1
 25 55  1  0
 25 56  1  0
 26 57  1  6
 28 58  1  0
 28 59  1  0
 29 60  1  0
 29 61  1  0
 30 62  1  0
 30 63  1  0
 30 64  1  0
 31 65  1  0
 32 66  1  0
 34 67  1  0
M  END
>  <Ligand ID>  (1) 
LIG0002192

>  <Ligand>  (1) 
CHEMBL2113671

>  <SMILES>  (1) 
CO[C@]12C=C[C@]3(C[C@H]1[C@H](OCc1ccccc1)C)C14[C@@H]2Oc2c4c(C[C@H]3N(CC1)C)ccc2O

>  <CID>  (1) 
71459962.0

>  <ChEMBL ID>  (1) 
nan

>  <InChiKey>  (1) 
CPYPBXTZJKPBSH-ARJUCCIZSA-N

>  <InChi>  (1) 
InChI=1S/C29H33NO4/c1-18(33-17-19-7-5-4-6-8-19)21-16-27-11-12-29(21,32-3)26-28(27)13-14-30(2)23(27)15-20-9-10-22(31)25(34-26)24(20)28/h4-12,18,21,23,26,31H,13-17H2,1-3H3/t18-,21+,23-,26+,27-,28?,29-/m1/s1

>  <IUPAC Name>  (1) 
(1R,6R,14S,15R,19S)-15-methoxy-5-methyl-19-[(1R)-1-phenylmethoxyethyl]-13-oxa-5-azahexacyclo[13.2.2.12,8.01,6.02,14.012,20]icosa-8(20),9,11,16-tetraen-11-ol

$$$$
