
     RDKit          3D

 49 51  0  0  0  0  0  0  0  0999 V2000
   -8.9395    0.1706    0.6435 Cl  0  0  0  0  0  0  0  0  0  0  0  0
   -7.3493   -0.4984    0.3906 C   0  0  0  0  0  0  0  0  0  0  0  0
   -7.1128   -1.8513    0.5822 C   0  0  0  0  0  0  0  0  0  0  0  0
   -5.8742   -2.4259    0.3952 C   0  0  0  0  0  0  0  0  0  0  0  0
   -4.8049   -1.6614    0.0034 C   0  0  0  0  0  0  0  0  0  0  0  0
   -5.0112   -0.3169   -0.1939 C   0  0  0  0  0  0  0  0  0  0  0  0
   -6.2601    0.2574   -0.0045 C   0  0  0  0  0  0  0  0  0  0  0  0
   -3.9270    0.6211   -0.6254 C   0  0  2  0  0  0  0  0  0  0  0  0
   -2.5974   -0.0384   -0.7249 C   0  0  0  0  0  0  0  0  0  0  0  0
   -1.5795    0.7968   -1.2762 N   0  0  0  0  0  0  0  0  0  0  0  0
   -1.2053    1.8731   -0.4132 C   0  0  0  0  0  0  0  0  0  0  0  0
   -0.0581    2.6360   -1.0903 C   0  0  0  0  0  0  0  0  0  0  0  0
    1.0272    1.7283   -1.2717 N   0  0  0  0  0  0  0  0  0  0  0  0
    1.8688    1.2354   -0.2272 C   0  0  0  0  0  0  0  0  0  0  0  0
    1.7102    1.6825    1.0639 C   0  0  0  0  0  0  0  0  0  0  0  0
    2.5268    1.1723    2.0454 C   0  0  0  0  0  0  0  0  0  0  0  0
    3.4959    0.2155    1.7119 C   0  0  0  0  0  0  0  0  0  0  0  0
    3.6884   -0.2506    0.4511 C   0  0  0  0  0  0  0  0  0  0  0  0
    2.8275    0.2987   -0.5238 C   0  0  0  0  0  0  0  0  0  0  0  0
    4.6941   -1.1432   -0.0256 C   0  0  0  0  0  0  0  0  0  0  0  0
    4.3612   -2.1932   -1.4253 S   0  0  0  0  0  0  0  0  0  0  0  0
    6.0467   -2.9667   -1.4449 C   0  0  0  0  0  0  0  0  0  0  0  0
    6.6531   -2.3514   -0.4145 C   0  0  0  0  0  0  0  0  0  0  0  0
    6.0304   -1.4273    0.3325 C   0  0  0  0  0  0  0  0  0  0  0  0
    6.7527   -0.6457    1.3710 C   0  0  0  0  0  0  0  0  0  0  0  0
    6.2889    0.3578    1.9331 O   0  0  0  0  0  0  0  0  0  0  0  0
    8.0415   -1.0176    1.7835 O   0  0  0  0  0  0  0  0  0  0  0  0
   -3.9837    1.7465    0.1797 O   0  0  0  0  0  0  0  0  0  0  0  0
   -7.9650   -2.4477    0.8927 H   0  0  0  0  0  0  0  0  0  0  0  0
   -5.7220   -3.4849    0.5524 H   0  0  0  0  0  0  0  0  0  0  0  0
   -3.8404   -2.1017   -0.1412 H   0  0  0  0  0  0  0  0  0  0  0  0
   -6.4238    1.3122   -0.1585 H   0  0  0  0  0  0  0  0  0  0  0  0
   -4.2317    0.9323   -1.6574 H   0  0  0  0  0  0  0  0  0  0  0  0
   -2.2730   -0.2645    0.3342 H   0  0  0  0  0  0  0  0  0  0  0  0
   -2.6342   -0.9887   -1.3128 H   0  0  0  0  0  0  0  0  0  0  0  0
   -0.7708    0.2754   -1.6250 H   0  0  0  0  0  0  0  0  0  0  0  0
   -2.0104    2.6436   -0.3178 H   0  0  0  0  0  0  0  0  0  0  0  0
   -0.9624    1.4829    0.5673 H   0  0  0  0  0  0  0  0  0  0  0  0
   -0.4075    3.0199   -2.0511 H   0  0  0  0  0  0  0  0  0  0  0  0
    0.2119    3.5230   -0.4808 H   0  0  0  0  0  0  0  0  0  0  0  0
    1.2179    1.3989   -2.2562 H   0  0  0  0  0  0  0  0  0  0  0  0
    0.9902    2.4257    1.3691 H   0  0  0  0  0  0  0  0  0  0  0  0
    2.4159    1.5133    3.0712 H   0  0  0  0  0  0  0  0  0  0  0  0
    4.0412   -0.1689    2.5543 H   0  0  0  0  0  0  0  0  0  0  0  0
    2.9132   -0.0185   -1.5503 H   0  0  0  0  0  0  0  0  0  0  0  0
    6.3462   -3.6844   -2.1226 H   0  0  0  0  0  0  0  0  0  0  0  0
    7.7258   -2.6466   -0.1949 H   0  0  0  0  0  0  0  0  0  0  0  0
    8.6463   -0.3194    2.2273 H   0  0  0  0  0  0  0  0  0  0  0  0
   -4.5777    1.5941    0.9556 H   0  0  0  0  0  0  0  0  0  0  0  0
  1  2  1  0
  2  3  2  0
  3  4  1  0
  4  5  2  0
  5  6  1  0
  6  7  2  0
  6  8  1  0
  8  9  1  0
  9 10  1  0
 10 11  1  0
 11 12  1  0
 12 13  1  0
 13 14  1  0
 14 15  2  0
 15 16  1  0
 16 17  2  0
 17 18  1  0
 18 19  2  0
 18 20  1  0
 20 21  1  0
 21 22  1  0
 22 23  2  0
 23 24  1  0
 24 25  1  0
 25 26  2  0
 25 27  1  0
  8 28  1  0
  7  2  1  0
 19 14  1  0
 24 20  2  0
  3 29  1  0
  4 30  1  0
  5 31  1  0
  7 32  1  0
  8 33  1  6
  9 34  1  0
  9 35  1  0
 10 36  1  0
 11 37  1  0
 11 38  1  0
 12 39  1  0
 12 40  1  0
 13 41  1  0
 15 42  1  0
 16 43  1  0
 17 44  1  0
 19 45  1  0
 22 46  1  0
 23 47  1  0
 27 48  1  0
 28 49  1  0
M  END
>  <Ligand ID>  (1) 
LIG0002518

>  <Ligand>  (1) 
CHEMBL245875

>  <SMILES>  (1) 
Clc1cccc(c1)[C@H](CNCCNc1cccc(c1)c1sccc1C(=O)O)O

>  <CID>  (1) 
44441236.0

>  <ChEMBL ID>  (1) 
nan

>  <InChiKey>  (1) 
QWYBUWOMJOUHER-IBGZPJMESA-N

>  <InChi>  (1) 
InChI=1S/C21H21ClN2O3S/c22-16-5-1-3-14(11-16)19(25)13-23-8-9-24-17-6-2-4-15(12-17)20-18(21(26)27)7-10-28-20/h1-7,10-12,19,23-25H,8-9,13H2,(H,26,27)/t19-/m0/s1

>  <IUPAC Name>  (1) 
2-[3-[2-[[(2R)-2-(3-chlorophenyl)-2-hydroxyethyl]amino]ethylamino]phenyl]thiophene-3-carboxylic acid

$$$$
