
     RDKit          3D

136138  0  0  0  0  0  0  0  0999 V2000
   10.5372    3.2962   -4.5225 N   0  0  0  0  0  0  0  0  0  0  0  0
   10.6795    2.1632   -3.6622 C   0  0  0  0  0  0  0  0  0  0  0  0
    9.3405    1.6831   -3.0820 C   0  0  0  0  0  0  0  0  0  0  0  0
    9.6818    0.5020   -2.2163 C   0  0  0  0  0  0  0  0  0  0  0  0
    8.4952   -0.1345   -1.5409 C   0  0  1  0  0  0  0  0  0  0  0  0
    9.0474   -1.2839   -0.7328 C   0  0  0  0  0  0  0  0  0  0  0  0
    8.9103   -1.2504    0.4991 O   0  0  0  0  0  0  0  0  0  0  0  0
    9.6985   -2.3504   -1.4212 N   0  0  0  0  0  0  0  0  0  0  0  0
   10.2232   -3.4504   -0.6320 C   0  0  0  0  0  0  0  0  0  0  0  0
   11.2410   -3.0163    0.3539 C   0  0  0  0  0  0  0  0  0  0  0  0
   11.7959   -3.8470    1.1172 O   0  0  0  0  0  0  0  0  0  0  0  0
   11.5940   -1.6264    0.4337 N   0  0  0  0  0  0  0  0  0  0  0  0
    7.8820    0.8380   -0.6815 N   0  0  0  0  0  0  0  0  0  0  0  0
    6.4247    1.0059   -0.6421 C   0  0  0  0  0  0  0  0  0  0  0  0
    5.8284    0.2233   -1.4203 O   0  0  0  0  0  0  0  0  0  0  0  0
    5.9220    1.9938    0.2429 C   0  0  2  0  0  0  0  0  0  0  0  0
    6.6853    2.2642    1.5197 C   0  0  0  0  0  0  0  0  0  0  0  0
    5.7886    3.2141    2.2750 C   0  0  0  0  0  0  0  0  0  0  0  0
    4.4684    3.2183    1.4627 C   0  0  0  0  0  0  0  0  0  0  0  0
    4.5774    1.8723    0.8363 N   0  0  0  0  0  0  0  0  0  0  0  0
    3.6680    0.8229    0.8151 C   0  0  0  0  0  0  0  0  0  0  0  0
    4.1845   -0.2839    0.2773 O   0  0  0  0  0  0  0  0  0  0  0  0
    2.3222    0.6270    1.2264 C   0  0  2  0  0  0  0  0  0  0  0  0
    1.5485    1.4295    2.1683 C   0  0  0  0  0  0  0  0  0  0  0  0
    1.0119    3.0587    1.5472 S   0  0  0  0  0  0  0  0  0  0  0  0
   -0.1986    2.6501   -0.1399 S   0  0  0  0  0  0  0  0  0  0  0  0
   -1.8843    2.4839    0.4420 C   0  0  0  0  0  0  0  0  0  0  0  0
   -2.3633    3.8302    0.9127 C   0  0  2  0  0  0  0  0  0  0  0  0
   -1.5668    4.2675    2.0072 N   0  0  0  0  0  0  0  0  0  0  0  0
   -3.8192    3.8371    1.1992 C   0  0  0  0  0  0  0  0  0  0  0  0
   -4.3235    4.0468    2.3140 O   0  0  0  0  0  0  0  0  0  0  0  0
   -4.8059    3.5934    0.1628 N   0  0  0  0  0  0  0  0  0  0  0  0
   -6.2362    3.5489    0.4790 C   0  0  1  0  0  0  0  0  0  0  0  0
   -7.0354    4.4926   -0.3493 C   0  0  0  0  0  0  0  0  0  0  0  0
   -8.4822    4.4260   -0.0110 C   0  0  0  0  0  0  0  0  0  0  0  0
   -9.3454    3.5719   -0.6965 C   0  0  0  0  0  0  0  0  0  0  0  0
  -10.6918    3.5307   -0.3486 C   0  0  0  0  0  0  0  0  0  0  0  0
  -11.1492    4.3335    0.6662 C   0  0  0  0  0  0  0  0  0  0  0  0
  -10.3192    5.2009    1.3759 C   0  0  0  0  0  0  0  0  0  0  0  0
   -8.9752    5.2287    1.0139 C   0  0  0  0  0  0  0  0  0  0  0  0
   -6.6344    2.1025    0.2820 C   0  0  0  0  0  0  0  0  0  0  0  0
   -7.7560    1.6641    0.5701 O   0  0  0  0  0  0  0  0  0  0  0  0
   -5.7218    1.1765   -0.2555 N   0  0  0  0  0  0  0  0  0  0  0  0
   -5.9467   -0.2641   -0.4291 C   0  0  2  0  0  0  0  0  0  0  0  0
   -4.9600   -0.9505    0.4366 C   0  0  0  0  0  0  0  0  0  0  0  0
   -4.2923   -0.2165    1.1978 O   0  0  0  0  0  0  0  0  0  0  0  0
   -4.6741   -2.3339    0.5061 N   0  0  0  0  0  0  0  0  0  0  0  0
   -3.6575   -2.7064    1.4919 C   0  0  2  0  0  0  0  0  0  0  0  0
   -2.3057   -2.7898    0.8029 C   0  0  0  0  0  0  0  0  0  0  0  0
   -2.1643   -2.9444   -0.3996 O   0  0  0  0  0  0  0  0  0  0  0  0
   -1.1763   -2.6654    1.6144 N   0  0  0  0  0  0  0  0  0  0  0  0
    0.2268   -2.7032    1.3035 C   0  0  2  0  0  0  0  0  0  0  0  0
    0.6547   -1.2871    1.2474 C   0  0  0  0  0  0  0  0  0  0  0  0
   -0.2212   -0.4292    1.0621 O   0  0  0  0  0  0  0  0  0  0  0  0
    1.9745   -0.8074    1.3976 N   0  0  0  0  0  0  0  0  0  0  0  0
    0.4342   -3.3316   -0.0941 C   0  0  0  0  0  0  0  0  0  0  0  0
   -0.1052   -4.6815   -0.0662 C   0  0  0  0  0  0  0  0  0  0  0  0
   -0.6240   -5.2550    0.9253 O   0  0  0  0  0  0  0  0  0  0  0  0
   -0.0583   -5.4682   -1.2742 N   0  0  0  0  0  0  0  0  0  0  0  0
   -3.9693   -4.0024    2.1795 C   0  0  0  0  0  0  0  0  0  0  0  0
   -4.0598   -5.1389    1.2211 C   0  0  0  0  0  0  0  0  0  0  0  0
   -3.8440   -5.0272   -0.0086 O   0  0  0  0  0  0  0  0  0  0  0  0
   -4.4154   -6.4073    1.7784 N   0  0  0  0  0  0  0  0  0  0  0  0
   -4.4961   -7.5192    0.8539 C   0  0  0  0  0  0  0  0  0  0  0  0
   -4.6878   -6.5804    3.1877 C   0  0  0  0  0  0  0  0  0  0  0  0
   -5.9816   -0.7058   -1.8426 C   0  0  2  0  0  0  0  0  0  0  0  0
   -4.7250   -0.4266   -2.6144 C   0  0  0  0  0  0  0  0  0  0  0  0
   -4.9017   -0.9321   -4.0422 C   0  0  0  0  0  0  0  0  0  0  0  0
   -7.1242    0.0685   -2.5134 C   0  0  0  0  0  0  0  0  0  0  0  0
    9.5752    3.5969   -4.7012 H   0  0  0  0  0  0  0  0  0  0  0  0
   11.2186    4.0602   -4.3363 H   0  0  0  0  0  0  0  0  0  0  0  0
   11.1684    1.3075   -4.1326 H   0  0  0  0  0  0  0  0  0  0  0  0
   11.2701    2.4776   -2.7538 H   0  0  0  0  0  0  0  0  0  0  0  0
    8.9823    2.5430   -2.4785 H   0  0  0  0  0  0  0  0  0  0  0  0
    8.6389    1.4145   -3.8982 H   0  0  0  0  0  0  0  0  0  0  0  0
   10.3065   -0.2359   -2.7551 H   0  0  0  0  0  0  0  0  0  0  0  0
   10.3519    0.9070   -1.4053 H   0  0  0  0  0  0  0  0  0  0  0  0
    7.8020   -0.6073   -2.2428 H   0  0  0  0  0  0  0  0  0  0  0  0
    9.7782   -2.3112   -2.4630 H   0  0  0  0  0  0  0  0  0  0  0  0
   10.6795   -4.1649   -1.3366 H   0  0  0  0  0  0  0  0  0  0  0  0
    9.3776   -3.9199   -0.0856 H   0  0  0  0  0  0  0  0  0  0  0  0
   11.8251   -1.2713    1.3851 H   0  0  0  0  0  0  0  0  0  0  0  0
   11.6127   -1.0222   -0.4272 H   0  0  0  0  0  0  0  0  0  0  0  0
    8.4931    1.4267   -0.0803 H   0  0  0  0  0  0  0  0  0  0  0  0
    5.8743    2.9917   -0.3143 H   0  0  0  0  0  0  0  0  0  0  0  0
    7.6281    2.7608    1.2671 H   0  0  0  0  0  0  0  0  0  0  0  0
    6.8236    1.3766    2.1354 H   0  0  0  0  0  0  0  0  0  0  0  0
    5.4933    2.7837    3.2741 H   0  0  0  0  0  0  0  0  0  0  0  0
    6.1995    4.2397    2.3647 H   0  0  0  0  0  0  0  0  0  0  0  0
    4.5882    3.9714    0.6774 H   0  0  0  0  0  0  0  0  0  0  0  0
    3.6375    3.3291    2.1340 H   0  0  0  0  0  0  0  0  0  0  0  0
    1.7045    0.8891    0.2121 H   0  0  0  0  0  0  0  0  0  0  0  0
    2.2234    1.5952    3.0824 H   0  0  0  0  0  0  0  0  0  0  0  0
    0.6629    0.9485    2.6176 H   0  0  0  0  0  0  0  0  0  0  0  0
   -1.9207    1.7257    1.2752 H   0  0  0  0  0  0  0  0  0  0  0  0
   -2.5098    2.1228   -0.4223 H   0  0  0  0  0  0  0  0  0  0  0  0
   -2.2064    4.5511    0.0853 H   0  0  0  0  0  0  0  0  0  0  0  0
   -1.8434    3.8496    2.9189 H   0  0  0  0  0  0  0  0  0  0  0  0
   -1.6144    5.3102    2.0552 H   0  0  0  0  0  0  0  0  0  0  0  0
   -4.4072    3.4719   -0.7632 H   0  0  0  0  0  0  0  0  0  0  0  0
   -6.4199    3.7494    1.5425 H   0  0  0  0  0  0  0  0  0  0  0  0
   -6.8892    4.2047   -1.4326 H   0  0  0  0  0  0  0  0  0  0  0  0
   -6.7059    5.5238   -0.1759 H   0  0  0  0  0  0  0  0  0  0  0  0
   -9.0010    2.9384   -1.4985 H   0  0  0  0  0  0  0  0  0  0  0  0
  -11.3901    2.8823   -0.8565 H   0  0  0  0  0  0  0  0  0  0  0  0
  -12.2055    4.3136    0.9536 H   0  0  0  0  0  0  0  0  0  0  0  0
  -10.7023    5.8276    2.1748 H   0  0  0  0  0  0  0  0  0  0  0  0
   -8.3486    5.8970    1.5634 H   0  0  0  0  0  0  0  0  0  0  0  0
   -4.8184    1.5324   -0.5584 H   0  0  0  0  0  0  0  0  0  0  0  0
   -6.9669   -0.4917    0.0011 H   0  0  0  0  0  0  0  0  0  0  0  0
   -5.1752   -2.9472   -0.1094 H   0  0  0  0  0  0  0  0  0  0  0  0
   -3.5366   -1.9062    2.2808 H   0  0  0  0  0  0  0  0  0  0  0  0
   -1.3913   -2.5171    2.6417 H   0  0  0  0  0  0  0  0  0  0  0  0
    0.7509   -3.3736    1.9783 H   0  0  0  0  0  0  0  0  0  0  0  0
    2.6749   -1.5149    1.6352 H   0  0  0  0  0  0  0  0  0  0  0  0
    1.5502   -3.3533   -0.1991 H   0  0  0  0  0  0  0  0  0  0  0  0
    0.0049   -2.7232   -0.8800 H   0  0  0  0  0  0  0  0  0  0  0  0
   -0.6676   -5.1376   -2.0765 H   0  0  0  0  0  0  0  0  0  0  0  0
    0.5414   -6.3176   -1.3598 H   0  0  0  0  0  0  0  0  0  0  0  0
   -3.1844   -4.2068    2.9606 H   0  0  0  0  0  0  0  0  0  0  0  0
   -4.9122   -3.9398    2.7812 H   0  0  0  0  0  0  0  0  0  0  0  0
   -3.5198   -7.7123    0.3618 H   0  0  0  0  0  0  0  0  0  0  0  0
   -4.7060   -8.4311    1.4539 H   0  0  0  0  0  0  0  0  0  0  0  0
   -5.3441   -7.4330    0.1440 H   0  0  0  0  0  0  0  0  0  0  0  0
   -5.7852   -6.7689    3.3571 H   0  0  0  0  0  0  0  0  0  0  0  0
   -4.1770   -7.4966    3.5334 H   0  0  0  0  0  0  0  0  0  0  0  0
   -4.4237   -5.7041    3.7870 H   0  0  0  0  0  0  0  0  0  0  0  0
   -6.2673   -1.7702   -1.8615 H   0  0  0  0  0  0  0  0  0  0  0  0
   -3.8926   -0.9569   -2.1514 H   0  0  0  0  0  0  0  0  0  0  0  0
   -4.4972    0.6711   -2.6383 H   0  0  0  0  0  0  0  0  0  0  0  0
   -5.2546   -0.1064   -4.6791 H   0  0  0  0  0  0  0  0  0  0  0  0
   -3.9396   -1.3271   -4.4396 H   0  0  0  0  0  0  0  0  0  0  0  0
   -5.6327   -1.7767   -4.0039 H   0  0  0  0  0  0  0  0  0  0  0  0
   -6.8277    1.1100   -2.7190 H   0  0  0  0  0  0  0  0  0  0  0  0
   -7.9726    0.1440   -1.7698 H   0  0  0  0  0  0  0  0  0  0  0  0
   -7.5277   -0.4489   -3.3857 H   0  0  0  0  0  0  0  0  0  0  0  0
  1  2  1  0
  2  3  1  0
  3  4  1  0
  4  5  1  0
  5  6  1  0
  6  7  2  0
  6  8  1  0
  8  9  1  0
  9 10  1  0
 10 11  2  0
 10 12  1  0
  5 13  1  0
 13 14  1  0
 14 15  2  0
 14 16  1  0
 16 17  1  0
 17 18  1  0
 18 19  1  0
 19 20  1  0
 20 21  1  0
 21 22  2  0
 21 23  1  0
 23 24  1  0
 24 25  1  0
 25 26  1  0
 26 27  1  0
 27 28  1  0
 28 29  1  0
 28 30  1  0
 30 31  2  0
 30 32  1  0
 32 33  1  0
 33 34  1  0
 34 35  1  0
 35 36  2  0
 36 37  1  0
 37 38  2  0
 38 39  1  0
 39 40  2  0
 33 41  1  0
 41 42  2  0
 41 43  1  0
 43 44  1  0
 44 45  1  0
 45 46  2  0
 45 47  1  0
 47 48  1  0
 48 49  1  0
 49 50  2  0
 49 51  1  0
 51 52  1  0
 52 53  1  0
 53 54  2  0
 53 55  1  0
 52 56  1  0
 56 57  1  0
 57 58  2  0
 57 59  1  0
 48 60  1  0
 60 61  1  0
 61 62  2  0
 61 63  1  0
 63 64  1  0
 63 65  1  0
 44 66  1  0
 66 67  1  0
 67 68  1  0
 66 69  1  0
 20 16  1  0
 55 23  1  0
 40 35  1  0
  1 70  1  0
  1 71  1  0
  2 72  1  0
  2 73  1  0
  3 74  1  0
  3 75  1  0
  4 76  1  0
  4 77  1  0
  5 78  1  6
  8 79  1  0
  9 80  1  0
  9 81  1  0
 12 82  1  0
 12 83  1  0
 13 84  1  0
 16 85  1  6
 17 86  1  0
 17 87  1  0
 18 88  1  0
 18 89  1  0
 19 90  1  0
 19 91  1  0
 23 92  1  6
 24 93  1  0
 24 94  1  0
 27 95  1  0
 27 96  1  0
 28 97  1  6
 29 98  1  0
 29 99  1  0
 32100  1  0
 33101  1  1
 34102  1  0
 34103  1  0
 36104  1  0
 37105  1  0
 38106  1  0
 39107  1  0
 40108  1  0
 43109  1  0
 44110  1  1
 47111  1  0
 48112  1  1
 51113  1  0
 52114  1  1
 55115  1  0
 56116  1  0
 56117  1  0
 59118  1  0
 59119  1  0
 60120  1  0
 60121  1  0
 64122  1  0
 64123  1  0
 64124  1  0
 65125  1  0
 65126  1  0
 65127  1  0
 66128  1  1
 67129  1  0
 67130  1  0
 68131  1  0
 68132  1  0
 68133  1  0
 69134  1  0
 69135  1  0
 69136  1  0
M  END
>  <Ligand ID>  (1) 
LIG0000917

>  <Ligand>  (1) 
CHEMBL1817695

>  <SMILES>  (1) 
NCCC[C@@H](C(=O)NCC(=O)N)NC(=O)[C@@H]1CCCN1C(=O)[C@@H]1CSSC[C@H](N)C(=O)N[C@@H](Cc2ccccc2)C(=O)N[C@H](C(=O)N[C@H](C(=O)N[C@H](C(=O)N1)CC(=O)N)CC(=O)N(C)C)[C@H](CC)C

>  <CID>  (1) 
53362258.0

>  <ChEMBL ID>  (1) 
nan

>  <InChiKey>  (1) 
JVIVORDVXGTUAT-GHDRINTISA-N

>  <InChi>  (1) 
InChI=1S/C43H67N13O11S2/c1-5-23(2)35-42(66)52-29(19-34(59)55(3)4)39(63)51-28(18-32(46)57)38(62)53-30(22-69-68-21-25(45)36(60)50-27(40(64)54-35)17-24-11-7-6-8-12-24)43(67)56-16-10-14-31(56)41(65)49-26(13-9-15-44)37(61)48-20-33(47)58/h6-8,11-12,23,25-31,35H,5,9-10,13-22,44-45H2,1-4H3,(H2,46,57)(H2,47,58)(H,48,61)(H,49,65)(H,50,60)(H,51,63)(H,52,66)(H,53,62)(H,54,64)/t23-,25-,26-,27-,28-,29-,30-,31-,35-/m0/s1

>  <IUPAC Name>  (1) 
(2S)-N-[(2S)-5-amino-1-[(2-amino-2-oxoethyl)amino]-1-oxopentan-2-yl]-1-[(4R,7S,10S,13S,16S,19R)-19-amino-7-(2-amino-2-oxoethyl)-16-benzyl-13-[(2S)-butan-2-yl]-10-[2-(dimethylamino)-2-oxoethyl]-6,9,12,15,18-pentaoxo-1,2-dithia-5,8,11,14,17-pentazacycloicosane-4-carbonyl]pyrrolidine-2-carboxamide

$$$$
