
     RDKit          3D

 62 66  0  0  0  0  0  0  0  0999 V2000
   -5.5301   -1.9332    0.3556 C   0  0  0  0  0  0  0  0  0  0  0  0
   -5.7856   -0.6293   -0.2568 C   0  0  0  0  0  0  0  0  0  0  0  0
   -6.6207   -0.5961   -1.3652 C   0  0  0  0  0  0  0  0  0  0  0  0
   -6.9662    0.5591   -2.0178 C   0  0  0  0  0  0  0  0  0  0  0  0
   -6.4511    1.7413   -1.5387 C   0  0  0  0  0  0  0  0  0  0  0  0
   -5.6214    1.7288   -0.4417 C   0  0  0  0  0  0  0  0  0  0  0  0
   -5.2716    0.5466    0.2204 C   0  0  0  0  0  0  0  0  0  0  0  0
   -4.3497    0.6915    1.3592 C   0  0  0  0  0  0  0  0  0  0  0  0
   -3.0113    0.4589    1.0163 N   0  0  0  0  0  0  0  0  0  0  0  0
   -2.5665   -0.7725    0.5450 C   0  0  0  0  0  0  0  0  0  0  0  0
   -1.0581   -0.9268    0.4923 C   0  0  0  0  0  0  0  0  0  0  0  0
   -0.3616    0.3117   -0.0212 C   0  0  0  0  0  0  0  0  0  0  0  0
   -0.7410    1.4206    0.9043 C   0  0  0  0  0  0  0  0  0  0  0  0
   -2.2362    1.6294    0.7140 C   0  0  0  0  0  0  0  0  0  0  0  0
    1.0011    0.1074   -0.0970 N   0  0  0  0  0  0  0  0  0  0  0  0
    1.5523   -0.8901   -0.9237 C   0  0  0  0  0  0  0  0  0  0  0  0
    2.1630   -1.9365   -0.0577 C   0  0  0  0  0  0  0  0  0  0  0  0
    3.3088   -1.3179    0.7767 C   0  0  0  0  0  0  0  0  0  0  0  0
    2.6278   -0.2836    1.5442 C   0  0  0  0  0  0  0  0  0  0  0  0
    1.9081    0.7925    0.7568 C   0  0  0  0  0  0  0  0  0  0  0  0
    4.4351   -1.0535   -0.0211 N   0  0  0  0  0  0  0  0  0  0  0  0
    4.9018   -1.8857   -0.9911 C   0  0  0  0  0  0  0  0  0  0  0  0
    4.4658   -2.9956   -1.3693 O   0  0  0  0  0  0  0  0  0  0  0  0
    5.9938   -1.3202   -1.5501 N   0  0  0  0  0  0  0  0  0  0  0  0
    6.2550   -0.1582   -0.9843 C   0  0  0  0  0  0  0  0  0  0  0  0
    5.2736    0.0192   -0.0151 C   0  0  0  0  0  0  0  0  0  0  0  0
    5.3550    1.1848    0.7118 C   0  0  0  0  0  0  0  0  0  0  0  0
    6.3409    2.1179    0.4981 C   0  0  0  0  0  0  0  0  0  0  0  0
    7.3110    1.9265   -0.4710 C   0  0  0  0  0  0  0  0  0  0  0  0
    7.2510    0.7706   -1.2097 C   0  0  0  0  0  0  0  0  0  0  0  0
    8.1696    0.5381   -2.1620 F   0  0  0  0  0  0  0  0  0  0  0  0
   -5.2611   -1.9027    1.4231 H   0  0  0  0  0  0  0  0  0  0  0  0
   -4.7947   -2.5580   -0.2148 H   0  0  0  0  0  0  0  0  0  0  0  0
   -6.5130   -2.4922    0.3371 H   0  0  0  0  0  0  0  0  0  0  0  0
   -7.0335   -1.5185   -1.7523 H   0  0  0  0  0  0  0  0  0  0  0  0
   -7.6295    0.5511   -2.8916 H   0  0  0  0  0  0  0  0  0  0  0  0
   -6.7221    2.6483   -2.0501 H   0  0  0  0  0  0  0  0  0  0  0  0
   -5.2376    2.6941   -0.0982 H   0  0  0  0  0  0  0  0  0  0  0  0
   -4.6547   -0.1069    2.1060 H   0  0  0  0  0  0  0  0  0  0  0  0
   -4.5192    1.6488    1.9131 H   0  0  0  0  0  0  0  0  0  0  0  0
   -2.8901   -1.5679    1.2815 H   0  0  0  0  0  0  0  0  0  0  0  0
   -2.9345   -1.0732   -0.4497 H   0  0  0  0  0  0  0  0  0  0  0  0
   -0.8221   -1.7871   -0.1394 H   0  0  0  0  0  0  0  0  0  0  0  0
   -0.6410   -1.1238    1.5177 H   0  0  0  0  0  0  0  0  0  0  0  0
   -0.8309    0.5141   -1.0259 H   0  0  0  0  0  0  0  0  0  0  0  0
   -0.2587    2.3834    0.7254 H   0  0  0  0  0  0  0  0  0  0  0  0
   -0.6426    1.1041    1.9808 H   0  0  0  0  0  0  0  0  0  0  0  0
   -2.5379    2.4230    1.4309 H   0  0  0  0  0  0  0  0  0  0  0  0
   -2.4267    1.9358   -0.3270 H   0  0  0  0  0  0  0  0  0  0  0  0
    0.7823   -1.3158   -1.5671 H   0  0  0  0  0  0  0  0  0  0  0  0
    2.2843   -0.3886   -1.5992 H   0  0  0  0  0  0  0  0  0  0  0  0
    2.3775   -2.8977   -0.4763 H   0  0  0  0  0  0  0  0  0  0  0  0
    1.3763   -2.1477    0.7370 H   0  0  0  0  0  0  0  0  0  0  0  0
    3.4968   -2.1590    1.5230 H   0  0  0  0  0  0  0  0  0  0  0  0
    1.7087   -0.8349    1.9800 H   0  0  0  0  0  0  0  0  0  0  0  0
    3.0596    0.0469    2.5076 H   0  0  0  0  0  0  0  0  0  0  0  0
    2.5455    1.4232    0.1428 H   0  0  0  0  0  0  0  0  0  0  0  0
    1.3218    1.3644    1.5046 H   0  0  0  0  0  0  0  0  0  0  0  0
    6.5605   -1.7346   -2.3229 H   0  0  0  0  0  0  0  0  0  0  0  0
    4.6255    1.3778    1.4733 H   0  0  0  0  0  0  0  0  0  0  0  0
    6.3794    3.0137    1.0775 H   0  0  0  0  0  0  0  0  0  0  0  0
    8.0892    2.6343   -0.6595 H   0  0  0  0  0  0  0  0  0  0  0  0
  1  2  1  0
  2  3  2  0
  3  4  1  0
  4  5  2  0
  5  6  1  0
  6  7  2  0
  7  8  1  0
  8  9  1  0
  9 10  1  0
 10 11  1  0
 11 12  1  0
 12 13  1  0
 13 14  1  0
 12 15  1  0
 15 16  1  0
 16 17  1  0
 17 18  1  0
 18 19  1  0
 19 20  1  0
 18 21  1  0
 21 22  1  0
 22 23  2  0
 22 24  1  0
 24 25  1  0
 25 26  2  0
 26 27  1  0
 27 28  2  0
 28 29  1  0
 29 30  2  0
 30 31  1  0
  7  2  1  0
 14  9  1  0
 20 15  1  0
 26 21  1  0
 30 25  1  0
  1 32  1  0
  1 33  1  0
  1 34  1  0
  3 35  1  0
  4 36  1  0
  5 37  1  0
  6 38  1  0
  8 39  1  0
  8 40  1  0
 10 41  1  0
 10 42  1  0
 11 43  1  0
 11 44  1  0
 12 45  1  0
 13 46  1  0
 13 47  1  0
 14 48  1  0
 14 49  1  0
 16 50  1  0
 16 51  1  0
 17 52  1  0
 17 53  1  0
 18 54  1  0
 19 55  1  0
 19 56  1  0
 20 57  1  0
 20 58  1  0
 24 59  1  0
 27 60  1  0
 28 61  1  0
 29 62  1  0
M  END
>  <Ligand ID>  (1) 
LIG0000957

>  <Ligand>  (1) 
CHEMBL490598

>  <SMILES>  (1) 
Cc1ccccc1CN1CCC(CC1)N1CCC(CC1)n1c(=O)[nH]c2c1cccc2F

>  <CID>  (1) 
44579418.0

>  <ChEMBL ID>  (1) 
nan

>  <InChiKey>  (1) 
QKEUCDCLCOAHSK-UHFFFAOYSA-N

>  <InChi>  (1) 
InChI=1S/C25H31FN4O/c1-18-5-2-3-6-19(18)17-28-13-9-20(10-14-28)29-15-11-21(12-16-29)30-23-8-4-7-22(26)24(23)27-25(30)31/h2-8,20-21H,9-17H2,1H3,(H,27,31)

>  <IUPAC Name>  (1) 
7-fluoro-3-[1-[1-[(2-methylphenyl)methyl]piperidin-4-yl]piperidin-4-yl]-1H-benzimidazol-2-one

$$$$
