
     RDKit          3D

 46 47  0  0  0  0  0  0  0  0999 V2000
   -5.0639    5.4628   -0.6501 N   0  0  0  0  0  0  0  0  0  0  0  0
   -5.5855    4.3332   -0.6121 N   0  0  0  0  0  0  0  0  0  0  0  0
   -6.0824    3.2101   -0.5822 N   0  0  0  0  0  0  0  0  0  0  0  0
   -5.3361    2.0179   -0.8232 C   0  0  0  0  0  0  0  0  0  0  0  0
   -4.3671    1.6180    0.0411 C   0  0  0  0  0  0  0  0  0  0  0  0
   -3.6191    0.4924   -0.1294 N   0  0  0  0  0  0  0  0  0  0  0  0
   -3.8974   -0.2263   -1.2325 C   0  0  0  0  0  0  0  0  0  0  0  0
   -3.2258   -1.2719   -1.4215 O   0  0  0  0  0  0  0  0  0  0  0  0
   -4.8567    0.1406   -2.1181 N   0  0  0  0  0  0  0  0  0  0  0  0
   -5.6010    1.2502   -1.9590 C   0  0  0  0  0  0  0  0  0  0  0  0
   -6.4857    1.5724   -2.7923 O   0  0  0  0  0  0  0  0  0  0  0  0
   -2.6228    0.1572    0.8373 C   0  0  2  0  0  0  0  0  0  0  0  0
   -1.4361   -0.3543    0.2646 O   0  0  0  0  0  0  0  0  0  0  0  0
   -0.8243   -0.8548    1.4136 C   0  0  1  0  0  0  0  0  0  0  0  0
   -1.8905   -1.8277    1.8671 C   0  0  2  0  0  0  0  0  0  0  0  0
   -3.0790   -0.8562    1.8614 C   0  0  1  0  0  0  0  0  0  0  0  0
   -3.1355   -0.1969    3.0944 O   0  0  0  0  0  0  0  0  0  0  0  0
   -1.6446   -2.3274    3.1371 O   0  0  0  0  0  0  0  0  0  0  0  0
    0.4844   -1.5279    1.1145 C   0  0  0  0  0  0  0  0  0  0  0  0
    1.3457   -0.6186    0.5326 O   0  0  0  0  0  0  0  0  0  0  0  0
    2.8535   -1.2708    0.1549 P   0  0  0  0  0  0  0  0  0  0  0  0
    3.9204   -0.8626    1.1759 O   0  0  0  0  0  0  0  0  0  0  0  0
    3.3785   -0.5772   -1.2915 O   0  0  0  0  0  0  0  0  0  0  0  0
    5.0568   -0.6223   -1.4482 P   0  0  0  0  0  0  0  0  0  0  0  0
    5.4449   -1.6968   -2.4430 O   0  0  0  0  0  0  0  0  0  0  0  0
    5.5105    0.9056   -2.0191 O   0  0  0  0  0  0  0  0  0  0  0  0
    6.7147    1.5195   -1.0000 P   0  0  0  0  0  0  0  0  0  0  0  0
    6.5335    1.0735    0.4370 O   0  0  0  0  0  0  0  0  0  0  0  0
    6.7555    3.2063   -1.0359 O   0  0  0  0  0  0  0  0  0  0  0  0
    8.1844    0.8639   -1.5504 O   0  0  0  0  0  0  0  0  0  0  0  0
    5.7776   -0.9247    0.0526 O   0  0  0  0  0  0  0  0  0  0  0  0
    2.8429   -2.9473    0.1130 O   0  0  0  0  0  0  0  0  0  0  0  0
   -4.1545    2.2193    0.9375 H   0  0  0  0  0  0  0  0  0  0  0  0
   -5.0548   -0.4444   -2.9786 H   0  0  0  0  0  0  0  0  0  0  0  0
   -2.2772    1.1204    1.3126 H   0  0  0  0  0  0  0  0  0  0  0  0
   -0.7521   -0.0241    2.1216 H   0  0  0  0  0  0  0  0  0  0  0  0
   -2.1067   -2.5975    1.1228 H   0  0  0  0  0  0  0  0  0  0  0  0
   -4.0085   -1.3642    1.5884 H   0  0  0  0  0  0  0  0  0  0  0  0
   -2.5875    0.6283    3.1086 H   0  0  0  0  0  0  0  0  0  0  0  0
   -0.6625   -2.3167    3.3523 H   0  0  0  0  0  0  0  0  0  0  0  0
    0.2566   -2.2844    0.3093 H   0  0  0  0  0  0  0  0  0  0  0  0
    0.8843   -2.1054    1.9470 H   0  0  0  0  0  0  0  0  0  0  0  0
    6.5093    3.5780   -0.1533 H   0  0  0  0  0  0  0  0  0  0  0  0
    8.2718   -0.0358   -1.1165 H   0  0  0  0  0  0  0  0  0  0  0  0
    6.1302   -1.8567    0.0413 H   0  0  0  0  0  0  0  0  0  0  0  0
    3.5019   -3.3768    0.7231 H   0  0  0  0  0  0  0  0  0  0  0  0
  1  2  2  0
  2  3  2  0
  3  4  1  0
  4  5  2  0
  5  6  1  0
  6  7  1  0
  7  8  2  0
  7  9  1  0
  9 10  1  0
 10 11  2  0
  6 12  1  0
 12 13  1  0
 13 14  1  0
 14 15  1  0
 15 16  1  0
 16 17  1  0
 15 18  1  0
 14 19  1  0
 19 20  1  0
 20 21  1  0
 21 22  2  0
 21 23  1  0
 23 24  1  0
 24 25  2  0
 24 26  1  0
 26 27  1  0
 27 28  2  0
 27 29  1  0
 27 30  1  0
 24 31  1  0
 21 32  1  0
 10  4  1  0
 16 12  1  0
  5 33  1  0
  9 34  1  0
 12 35  1  1
 14 36  1  1
 15 37  1  6
 16 38  1  6
 17 39  1  0
 18 40  1  0
 19 41  1  0
 19 42  1  0
 29 43  1  0
 30 44  1  0
 31 45  1  0
 32 46  1  0
M  CHG  2   1  -1   2   1
M  END
>  <Ligand ID>  (1) 
LIG0005743

>  <Ligand>  (1) 
CHEMBL219779

>  <SMILES>  (1) 
[N-]=[N+]=Nc1cn(c(=O)[nH]c1=O)[C@@H]1O[C@@H]([C@H]([C@H]1O)O)COP(=O)(OP(=O)(OP(=O)(O)O)O)O

>  <CID>  (1) 
44420652.0

>  <ChEMBL ID>  (1) 
nan

>  <InChiKey>  (1) 
DYVGSULTDVJPTN-UAKXSSHOSA-N

>  <InChi>  (1) 
InChI=1S/C9H14N5O15P3/c10-13-12-3-1-14(9(18)11-7(3)17)8-6(16)5(15)4(27-8)2-26-31(22,23)29-32(24,25)28-30(19,20)21/h1,4-6,8,15-16H,2H2,(H,22,23)(H,24,25)(H,11,17,18)(H2,19,20,21)/t4-,5-,6-,8-/m1/s1

>  <IUPAC Name>  (1) 
[[(2R,3S,4R,5R)-5-(5-azido-2,4-dioxopyrimidin-1-yl)-3,4-dihydroxyoxolan-2-yl]methoxy-hydroxyphosphoryl] phosphono hydrogen phosphate

$$$$
