
     RDKit          3D

 35 37  0  0  0  0  0  0  0  0999 V2000
    4.2403   -1.8235    0.2227 C   0  0  0  0  0  0  0  0  0  0  0  0
    3.4419   -1.1711    1.3242 C   0  0  0  0  0  0  0  0  0  0  0  0
    2.4867   -0.2298    0.6839 C   0  0  0  0  0  0  0  0  0  0  0  0
    2.7547    1.0287    0.4333 O   0  0  0  0  0  0  0  0  0  0  0  0
    1.7073    1.6030   -0.1395 C   0  0  0  0  0  0  0  0  0  0  0  0
    0.7141    0.6501   -0.2594 C   0  0  0  0  0  0  0  0  0  0  0  0
    1.1898   -0.5331    0.2614 C   0  0  0  0  0  0  0  0  0  0  0  0
   -0.5052    0.9502   -0.8222 C   0  0  0  0  0  0  0  0  0  0  0  0
   -0.6705    2.2627   -1.2581 C   0  0  0  0  0  0  0  0  0  0  0  0
    0.3193    3.2130   -1.1387 C   0  0  0  0  0  0  0  0  0  0  0  0
    1.5375    2.9048   -0.5740 C   0  0  0  0  0  0  0  0  0  0  0  0
   -1.9470    2.2982   -1.7718 C   0  0  0  0  0  0  0  0  0  0  0  0
   -2.4558    1.0985   -1.6338 N   0  0  0  0  0  0  0  0  0  0  0  0
   -1.6063    0.2318   -1.0537 N   0  0  0  0  0  0  0  0  0  0  0  0
   -1.9145   -1.1134   -0.7886 C   0  0  0  0  0  0  0  0  0  0  0  0
   -2.5707   -1.3227    0.5595 C   0  0  1  0  0  0  0  0  0  0  0  0
   -1.7702   -0.8994    1.6520 N   0  0  0  0  0  0  0  0  0  0  0  0
   -3.9710   -0.7481    0.5919 C   0  0  0  0  0  0  0  0  0  0  0  0
    5.2462   -1.3700    0.1099 H   0  0  0  0  0  0  0  0  0  0  0  0
    3.7000   -1.7955   -0.7479 H   0  0  0  0  0  0  0  0  0  0  0  0
    4.3675   -2.9001    0.4574 H   0  0  0  0  0  0  0  0  0  0  0  0
    4.0549   -0.7008    2.1018 H   0  0  0  0  0  0  0  0  0  0  0  0
    2.8385   -1.9545    1.8677 H   0  0  0  0  0  0  0  0  0  0  0  0
    0.7729   -1.4961    0.3705 H   0  0  0  0  0  0  0  0  0  0  0  0
    0.1757    4.2438   -1.4863 H   0  0  0  0  0  0  0  0  0  0  0  0
    2.2929    3.6606   -0.4914 H   0  0  0  0  0  0  0  0  0  0  0  0
   -2.4351    3.1639   -2.2090 H   0  0  0  0  0  0  0  0  0  0  0  0
   -2.7247   -1.4344   -1.5256 H   0  0  0  0  0  0  0  0  0  0  0  0
   -1.1542   -1.8767   -0.8939 H   0  0  0  0  0  0  0  0  0  0  0  0
   -2.7340   -2.4330    0.7055 H   0  0  0  0  0  0  0  0  0  0  0  0
   -1.0697   -1.6302    1.8788 H   0  0  0  0  0  0  0  0  0  0  0  0
   -1.3717    0.0357    1.6310 H   0  0  0  0  0  0  0  0  0  0  0  0
   -3.9815    0.3499    0.5044 H   0  0  0  0  0  0  0  0  0  0  0  0
   -4.5923   -1.2579   -0.1548 H   0  0  0  0  0  0  0  0  0  0  0  0
   -4.3657   -1.0045    1.5928 H   0  0  0  0  0  0  0  0  0  0  0  0
  1  2  1  0
  2  3  1  0
  3  4  1  0
  4  5  1  0
  5  6  2  0
  6  7  1  0
  6  8  1  0
  8  9  2  0
  9 10  1  0
 10 11  2  0
  9 12  1  0
 12 13  2  0
 13 14  1  0
 14 15  1  0
 15 16  1  0
 16 17  1  0
 16 18  1  0
  7  3  2  0
 14  8  1  0
 11  5  1  0
  1 19  1  0
  1 20  1  0
  1 21  1  0
  2 22  1  0
  2 23  1  0
  7 24  1  0
 10 25  1  0
 11 26  1  0
 12 27  1  0
 15 28  1  0
 15 29  1  0
 16 30  1  1
 17 31  1  0
 17 32  1  0
 18 33  1  0
 18 34  1  0
 18 35  1  0
M  END
>  <Ligand ID>  (1) 
LIG0004123

>  <Ligand>  (1) 
YM348

>  <SMILES>  (1) 
CCc1oc2c(c1)c1c(cc2)cnn1C[C@@H](N)C

>  <CID>  (1) 
3045225.0

>  <ChEMBL ID>  (1) 
nan

>  <InChiKey>  (1) 
QLOOWOVVZLBYHU-VIFPVBQESA-N

>  <InChi>  (1) 
InChI=1S/C14H17N3O/c1-3-11-6-12-13(18-11)5-4-10-7-16-17(14(10)12)8-9(2)15/h4-7,9H,3,8,15H2,1-2H3/t9-/m0/s1

>  <IUPAC Name>  (1) 
(2S)-1-(7-ethylfuro[2,3-g]indazol-1-yl)propan-2-amine

$$$$
