
     RDKit          3D

 71 74  0  0  0  0  0  0  0  0999 V2000
    6.5990   -2.3517   -1.4884 O   0  0  0  0  0  0  0  0  0  0  0  0
    6.0090   -1.0616   -1.3351 C   0  0  2  0  0  0  0  0  0  0  0  0
    6.9631   -0.4282   -0.2881 C   0  0  0  0  0  0  0  0  0  0  0  0
    8.1942   -0.1854   -0.6853 O   0  0  0  0  0  0  0  0  0  0  0  0
    9.3533   -0.5634   -1.1301 C   0  0  0  0  0  0  0  0  0  0  0  0
    9.8367   -1.8283   -1.4279 C   0  0  0  0  0  0  0  0  0  0  0  0
   11.1029   -2.0833   -1.9015 C   0  0  0  0  0  0  0  0  0  0  0  0
   11.9549   -1.0350   -2.0972 C   0  0  0  0  0  0  0  0  0  0  0  0
   11.5636    0.2385   -1.8306 C   0  0  0  0  0  0  0  0  0  0  0  0
   10.3100    0.4711   -1.3644 C   0  0  0  0  0  0  0  0  0  0  0  0
    4.6460   -1.1460   -0.7793 C   0  0  0  0  0  0  0  0  0  0  0  0
    3.8189   -0.0259   -0.6881 N   0  0  0  0  0  0  0  0  0  0  0  0
    4.0214    1.0808    0.1213 C   0  0  0  0  0  0  0  0  0  0  0  0
    2.8160    2.0163    0.0696 C   0  0  0  0  0  0  0  0  0  0  0  0
    1.5512    1.4522    0.4913 C   0  0  0  0  0  0  0  0  0  0  0  0
    0.6181    0.9371   -0.3852 C   0  0  0  0  0  0  0  0  0  0  0  0
   -0.5958    0.4143    0.0522 C   0  0  0  0  0  0  0  0  0  0  0  0
   -0.9220    0.3861    1.3762 C   0  0  0  0  0  0  0  0  0  0  0  0
    0.0160    0.9026    2.2668 C   0  0  0  0  0  0  0  0  0  0  0  0
    1.2205    1.4206    1.8254 C   0  0  0  0  0  0  0  0  0  0  0  0
   -2.1404   -0.0642    1.9281 N   0  0  0  0  0  0  0  0  0  0  0  0
   -3.3124   -0.3763    1.1956 C   0  0  0  0  0  0  0  0  0  0  0  0
   -3.3988   -0.2844   -0.0449 O   0  0  0  0  0  0  0  0  0  0  0  0
   -4.5513   -0.8482    1.9251 C   0  0  0  0  0  0  0  0  0  0  0  0
   -5.5193    0.2887    1.7857 C   0  0  0  0  0  0  0  0  0  0  0  0
   -5.4638    1.2240    2.8206 C   0  0  0  0  0  0  0  0  0  0  0  0
   -6.2848    2.3200    2.7916 C   0  0  0  0  0  0  0  0  0  0  0  0
   -7.1406    2.4491    1.7259 C   0  0  0  0  0  0  0  0  0  0  0  0
   -7.1822    1.4893    0.6853 C   0  0  0  0  0  0  0  0  0  0  0  0
   -6.3616    0.4373    0.7591 N   0  0  0  0  0  0  0  0  0  0  0  0
   -8.0805    1.7590   -0.3028 O   0  0  0  0  0  0  0  0  0  0  0  0
   -8.3112    0.9661   -1.4201 C   0  0  0  0  0  0  0  0  0  0  0  0
   -8.8100   -0.3739   -1.0805 C   0  0  0  0  0  0  0  0  0  0  0  0
  -10.1800   -0.5123   -0.8820 C   0  0  0  0  0  0  0  0  0  0  0  0
  -10.7868   -1.7038   -0.5742 C   0  0  0  0  0  0  0  0  0  0  0  0
  -10.0047   -2.8595   -0.4477 C   0  0  0  0  0  0  0  0  0  0  0  0
   -8.6489   -2.7372   -0.6428 C   0  0  0  0  0  0  0  0  0  0  0  0
   -8.0604   -1.5128   -0.9547 C   0  0  0  0  0  0  0  0  0  0  0  0
    6.9336   -2.6639   -0.6020 H   0  0  0  0  0  0  0  0  0  0  0  0
    6.0826   -0.5419   -2.2854 H   0  0  0  0  0  0  0  0  0  0  0  0
    7.0198   -1.2285    0.5711 H   0  0  0  0  0  0  0  0  0  0  0  0
    6.4539    0.3858    0.2713 H   0  0  0  0  0  0  0  0  0  0  0  0
    9.1994   -2.6598   -1.2762 H   0  0  0  0  0  0  0  0  0  0  0  0
   11.4558   -3.0731   -2.1250 H   0  0  0  0  0  0  0  0  0  0  0  0
   12.9481   -1.2000   -2.4670 H   0  0  0  0  0  0  0  0  0  0  0  0
   12.2454    1.0650   -1.9885 H   0  0  0  0  0  0  0  0  0  0  0  0
   10.0345    1.5048   -1.1640 H   0  0  0  0  0  0  0  0  0  0  0  0
    4.7148   -1.6240    0.2373 H   0  0  0  0  0  0  0  0  0  0  0  0
    4.0661   -1.9247   -1.3790 H   0  0  0  0  0  0  0  0  0  0  0  0
    2.9226   -0.0764   -1.2210 H   0  0  0  0  0  0  0  0  0  0  0  0
    4.1978    0.8100    1.1592 H   0  0  0  0  0  0  0  0  0  0  0  0
    4.8786    1.7509   -0.2270 H   0  0  0  0  0  0  0  0  0  0  0  0
    3.0618    2.8552    0.7709 H   0  0  0  0  0  0  0  0  0  0  0  0
    2.7502    2.5087   -0.9378 H   0  0  0  0  0  0  0  0  0  0  0  0
    0.7865    0.9212   -1.4587 H   0  0  0  0  0  0  0  0  0  0  0  0
   -1.2780    0.0272   -0.6871 H   0  0  0  0  0  0  0  0  0  0  0  0
   -0.1817    0.9078    3.3224 H   0  0  0  0  0  0  0  0  0  0  0  0
    1.9143    1.8088    2.5251 H   0  0  0  0  0  0  0  0  0  0  0  0
   -2.2198   -0.1940    2.9794 H   0  0  0  0  0  0  0  0  0  0  0  0
   -4.3390   -1.1086    2.9636 H   0  0  0  0  0  0  0  0  0  0  0  0
   -4.9667   -1.7228    1.4141 H   0  0  0  0  0  0  0  0  0  0  0  0
   -4.7970    1.1242    3.6540 H   0  0  0  0  0  0  0  0  0  0  0  0
   -6.3026    3.0909    3.5584 H   0  0  0  0  0  0  0  0  0  0  0  0
   -7.7888    3.3133    1.7027 H   0  0  0  0  0  0  0  0  0  0  0  0
   -9.0392    1.5153   -2.0756 H   0  0  0  0  0  0  0  0  0  0  0  0
   -7.3683    0.8917   -2.0508 H   0  0  0  0  0  0  0  0  0  0  0  0
  -10.8335    0.3681   -0.9710 H   0  0  0  0  0  0  0  0  0  0  0  0
  -11.8502   -1.7959   -0.4210 H   0  0  0  0  0  0  0  0  0  0  0  0
  -10.5143   -3.7766   -0.2053 H   0  0  0  0  0  0  0  0  0  0  0  0
   -8.0351   -3.6158   -0.5496 H   0  0  0  0  0  0  0  0  0  0  0  0
   -6.9909   -1.4753   -1.1063 H   0  0  0  0  0  0  0  0  0  0  0  0
  1  2  1  0
  2  3  1  0
  3  4  1  0
  4  5  1  0
  5  6  2  0
  6  7  1  0
  7  8  2  0
  8  9  1  0
  9 10  2  0
  2 11  1  0
 11 12  1  0
 12 13  1  0
 13 14  1  0
 14 15  1  0
 15 16  2  0
 16 17  1  0
 17 18  2  0
 18 19  1  0
 19 20  2  0
 18 21  1  0
 21 22  1  0
 22 23  2  0
 22 24  1  0
 24 25  1  0
 25 26  2  0
 26 27  1  0
 27 28  2  0
 28 29  1  0
 29 30  2  0
 29 31  1  0
 31 32  1  0
 32 33  1  0
 33 34  2  0
 34 35  1  0
 35 36  2  0
 36 37  1  0
 37 38  2  0
 10  5  1  0
 20 15  1  0
 30 25  1  0
 38 33  1  0
  1 39  1  0
  2 40  1  6
  3 41  1  0
  3 42  1  0
  6 43  1  0
  7 44  1  0
  8 45  1  0
  9 46  1  0
 10 47  1  0
 11 48  1  0
 11 49  1  0
 12 50  1  0
 13 51  1  0
 13 52  1  0
 14 53  1  0
 14 54  1  0
 16 55  1  0
 17 56  1  0
 19 57  1  0
 20 58  1  0
 21 59  1  0
 24 60  1  0
 24 61  1  0
 26 62  1  0
 27 63  1  0
 28 64  1  0
 32 65  1  0
 32 66  1  0
 34 67  1  0
 35 68  1  0
 36 69  1  0
 37 70  1  0
 38 71  1  0
M  END
>  <Ligand ID>  (1) 
LIG0002704

>  <Ligand>  (1) 
CHEMBL466467

>  <SMILES>  (1) 
O[C@H](COc1ccccc1)CNCCc1ccc(cc1)NC(=O)Cc1cccc(n1)OCc1ccccc1

>  <CID>  (1) 
44574757.0

>  <ChEMBL ID>  (1) 
nan

>  <InChiKey>  (1) 
CFQLFVMTRYHSFZ-NDEPHWFRSA-N

>  <InChi>  (1) 
InChI=1S/C31H33N3O4/c35-28(23-37-29-11-5-2-6-12-29)21-32-19-18-24-14-16-26(17-15-24)33-30(36)20-27-10-7-13-31(34-27)38-22-25-8-3-1-4-9-25/h1-17,28,32,35H,18-23H2,(H,33,36)/t28-/m0/s1

>  <IUPAC Name>  (1) 
N-[4-[2-[[(2S)-2-hydroxy-3-phenoxypropyl]amino]ethyl]phenyl]-2-(6-phenylmethoxypyridin-2-yl)acetamide

$$$$
