
     RDKit          3D

 57 60  0  0  0  0  0  0  0  0999 V2000
   -1.2195   -3.5498    0.3022 C   0  0  0  0  0  0  0  0  0  0  0  0
   -1.6633   -2.3122   -0.4219 C   0  0  0  0  0  0  0  0  0  0  0  0
   -3.1265   -2.4795   -0.8656 C   0  0  0  0  0  0  0  0  0  0  0  0
   -4.0664   -2.0248    0.1921 C   0  0  0  0  0  0  0  0  0  0  0  0
   -3.5115   -1.9674    1.5858 C   0  0  0  0  0  0  0  0  0  0  0  0
   -2.1925   -1.2578    1.6859 C   0  0  0  0  0  0  0  0  0  0  0  0
   -1.5745   -1.0173    0.3269 C   0  0  0  0  0  0  0  0  0  0  0  0
   -0.3283   -0.3397    0.3523 N   0  0  0  0  0  0  0  0  0  0  0  0
    0.8498   -0.8605    0.9925 C   0  0  0  0  0  0  0  0  0  0  0  0
    0.8608   -1.9784    1.5821 O   0  0  0  0  0  0  0  0  0  0  0  0
    2.1239   -0.1409    1.0166 C   0  0  0  0  0  0  0  0  0  0  0  0
    2.4211    1.0515    1.5591 N   0  0  0  0  0  0  0  0  0  0  0  0
    3.6707    1.3335    1.3921 O   0  0  0  0  0  0  0  0  0  0  0  0
    4.2407    0.3494    0.7404 C   0  0  0  0  0  0  0  0  0  0  0  0
    3.2952   -0.6355    0.4664 C   0  0  0  0  0  0  0  0  0  0  0  0
    5.6770    0.2496    0.3320 C   0  0  0  0  0  0  0  0  0  0  0  0
    6.4274    1.4764   -0.0742 C   0  0  0  0  0  0  0  0  0  0  0  0
    6.6460    0.9284    1.3076 C   0  0  0  0  0  0  0  0  0  0  0  0
   -0.1996    0.9381   -0.2759 C   0  0  0  0  0  0  0  0  0  0  0  0
   -0.9276    1.8981    0.7054 C   0  0  0  0  0  0  0  0  0  0  0  0
   -0.8206    3.3180    0.1732 C   0  0  0  0  0  0  0  0  0  0  0  0
   -1.7122    3.4698   -1.0310 C   0  0  0  0  0  0  0  0  0  0  0  0
   -1.9576    2.1175   -1.6723 C   0  0  0  0  0  0  0  0  0  0  0  0
   -0.6801    1.2811   -1.5839 C   0  0  0  0  0  0  0  0  0  0  0  0
   -0.6341    0.2478   -2.6873 C   0  0  0  0  0  0  0  0  0  0  0  0
   -0.2014   -3.8620   -0.0042 H   0  0  0  0  0  0  0  0  0  0  0  0
   -1.8556   -4.4245   -0.0790 H   0  0  0  0  0  0  0  0  0  0  0  0
   -1.2919   -3.5506    1.3784 H   0  0  0  0  0  0  0  0  0  0  0  0
   -1.0714   -2.2273   -1.3454 H   0  0  0  0  0  0  0  0  0  0  0  0
   -3.2416   -3.5124   -1.2027 H   0  0  0  0  0  0  0  0  0  0  0  0
   -3.2754   -1.8039   -1.7495 H   0  0  0  0  0  0  0  0  0  0  0  0
   -4.5366   -1.0344   -0.0300 H   0  0  0  0  0  0  0  0  0  0  0  0
   -4.9122   -2.7654    0.2343 H   0  0  0  0  0  0  0  0  0  0  0  0
   -3.4801   -2.9562    2.0858 H   0  0  0  0  0  0  0  0  0  0  0  0
   -4.3044   -1.4143    2.1798 H   0  0  0  0  0  0  0  0  0  0  0  0
   -2.3866   -0.2709    2.1988 H   0  0  0  0  0  0  0  0  0  0  0  0
   -1.5234   -1.8204    2.3513 H   0  0  0  0  0  0  0  0  0  0  0  0
   -2.3602   -0.3868   -0.2309 H   0  0  0  0  0  0  0  0  0  0  0  0
    3.4221   -1.5759   -0.0546 H   0  0  0  0  0  0  0  0  0  0  0  0
    6.0006   -0.6613   -0.1962 H   0  0  0  0  0  0  0  0  0  0  0  0
    7.2477    1.4093   -0.8157 H   0  0  0  0  0  0  0  0  0  0  0  0
    5.7829    2.3879   -0.1640 H   0  0  0  0  0  0  0  0  0  0  0  0
    6.1898    1.5087    2.1253 H   0  0  0  0  0  0  0  0  0  0  0  0
    7.6218    0.4285    1.4590 H   0  0  0  0  0  0  0  0  0  0  0  0
    0.8670    1.2312   -0.1381 H   0  0  0  0  0  0  0  0  0  0  0  0
   -1.9934    1.6102    0.6519 H   0  0  0  0  0  0  0  0  0  0  0  0
   -0.5714    1.7918    1.7248 H   0  0  0  0  0  0  0  0  0  0  0  0
   -1.1808    3.9821    0.9840 H   0  0  0  0  0  0  0  0  0  0  0  0
    0.2331    3.6128   -0.0359 H   0  0  0  0  0  0  0  0  0  0  0  0
   -2.6727    3.9298   -0.6902 H   0  0  0  0  0  0  0  0  0  0  0  0
   -1.3027    4.2084   -1.7640 H   0  0  0  0  0  0  0  0  0  0  0  0
   -2.1821    2.2403   -2.7614 H   0  0  0  0  0  0  0  0  0  0  0  0
   -2.8270    1.6958   -1.1983 H   0  0  0  0  0  0  0  0  0  0  0  0
    0.0646    2.0539   -1.9933 H   0  0  0  0  0  0  0  0  0  0  0  0
   -0.5750    0.7504   -3.6943 H   0  0  0  0  0  0  0  0  0  0  0  0
   -1.5705   -0.3470   -2.7421 H   0  0  0  0  0  0  0  0  0  0  0  0
    0.2882   -0.3230   -2.5840 H   0  0  0  0  0  0  0  0  0  0  0  0
  1  2  1  0
  2  3  1  0
  3  4  1  0
  4  5  1  0
  5  6  1  0
  6  7  1  0
  7  8  1  0
  8  9  1  0
  9 10  2  0
  9 11  1  0
 11 12  2  0
 12 13  1  0
 13 14  1  0
 14 15  2  0
 14 16  1  0
 16 17  1  0
 17 18  1  0
  8 19  1  0
 19 20  1  0
 20 21  1  0
 21 22  1  0
 22 23  1  0
 23 24  1  0
 24 25  1  0
  7  2  1  0
 15 11  1  0
 18 16  1  0
 24 19  1  0
  1 26  1  0
  1 27  1  0
  1 28  1  0
  2 29  1  0
  3 30  1  0
  3 31  1  0
  4 32  1  0
  4 33  1  0
  5 34  1  0
  5 35  1  0
  6 36  1  0
  6 37  1  0
  7 38  1  0
 15 39  1  0
 16 40  1  0
 17 41  1  0
 17 42  1  0
 18 43  1  0
 18 44  1  0
 19 45  1  0
 20 46  1  0
 20 47  1  0
 21 48  1  0
 21 49  1  0
 22 50  1  0
 22 51  1  0
 23 52  1  0
 23 53  1  0
 24 54  1  0
 25 55  1  0
 25 56  1  0
 25 57  1  0
M  END
>  <Ligand ID>  (1) 
LIG0001744

>  <Ligand>  (1) 
CHEMBL1969371

>  <SMILES>  (1) 
CC1CCCCC1N(C(=O)c1noc(c1)C1CC1)C1CCCCC1C

>  <CID>  (1) 
25110496.0

>  <ChEMBL ID>  (1) 
nan

>  <InChiKey>  (1) 
XVWDFPZSRGALNR-UHFFFAOYSA-N

>  <InChi>  (1) 
InChI=1S/C21H32N2O2/c1-14-7-3-5-9-18(14)23(19-10-6-4-8-15(19)2)21(24)17-13-20(25-22-17)16-11-12-16/h13-16,18-19H,3-12H2,1-2H3

>  <IUPAC Name>  (1) 
5-cyclopropyl-N,N-bis(2-methylcyclohexyl)-1,2-oxazole-3-carboxamide

$$$$
