
     RDKit          3D

 68 75  0  0  0  0  0  0  0  0999 V2000
    2.0050   -2.8529    1.8066 C   0  0  0  0  0  0  0  0  0  0  0  0
    1.2319   -2.0886    0.8811 N   0  0  0  0  0  0  0  0  0  0  0  0
    0.9129   -2.8223   -0.3012 C   0  0  0  0  0  0  0  0  0  0  0  0
    0.2518   -1.9685   -1.3422 C   0  0  0  0  0  0  0  0  0  0  0  0
   -0.6788   -0.9352   -0.7519 C   0  0  2  0  0  0  0  0  0  0  0  0
   -0.2180   -0.2525    0.4712 C   0  0  2  0  0  0  0  0  0  0  0  0
    0.1347   -1.3548    1.4612 C   0  0  0  0  0  0  0  0  0  0  0  0
   -0.9862   -2.2433    1.8416 C   0  0  0  0  0  0  0  0  0  0  0  0
   -2.0656   -2.3435    0.8240 C   0  0  0  0  0  0  0  0  0  0  0  0
   -1.8910   -1.7151   -0.3629 C   0  0  0  0  0  0  0  0  0  0  0  0
   -2.8036   -1.7156   -1.3879 C   0  0  0  0  0  0  0  0  0  0  0  0
   -2.2261   -0.9619   -2.3980 O   0  0  0  0  0  0  0  0  0  0  0  0
   -1.2407   -0.0892   -1.8320 C   0  0  1  0  0  0  0  0  0  0  0  0
   -2.0186    1.0574   -1.2989 C   0  0  0  0  0  0  0  0  0  0  0  0
   -2.0892    1.3339    0.0479 C   0  0  0  0  0  0  0  0  0  0  0  0
   -1.3961    0.5130    1.0698 C   0  0  0  0  0  0  0  0  0  0  0  0
   -2.8828    2.4560    0.2432 C   0  0  0  0  0  0  0  0  0  0  0  0
   -3.2664    3.1372    1.3828 C   0  0  0  0  0  0  0  0  0  0  0  0
   -4.0904    4.2584    1.2552 C   0  0  0  0  0  0  0  0  0  0  0  0
   -4.4845    4.6324   -0.0284 C   0  0  0  0  0  0  0  0  0  0  0  0
   -4.0926    3.9418   -1.1522 C   0  0  0  0  0  0  0  0  0  0  0  0
   -3.2820    2.8393   -1.0227 C   0  0  0  0  0  0  0  0  0  0  0  0
   -2.7522    1.9853   -1.9428 N   0  0  0  0  0  0  0  0  0  0  0  0
   -3.9770   -2.4064   -1.1867 C   0  0  0  0  0  0  0  0  0  0  0  0
   -4.1776   -3.0562    0.0174 C   0  0  0  0  0  0  0  0  0  0  0  0
   -3.2283   -3.0358    1.0397 C   0  0  0  0  0  0  0  0  0  0  0  0
   -4.9123   -2.4173   -2.2140 O   0  0  0  0  0  0  0  0  0  0  0  0
    0.8551    0.7605    0.3691 C   0  0  0  0  0  0  0  0  0  0  0  0
    2.1763    0.3953   -0.1514 C   0  0  0  0  0  0  0  0  0  0  0  0
    3.0289    1.6839   -0.0942 C   0  0  0  0  0  0  0  0  0  0  0  0
    4.3904    1.4160   -0.6025 C   0  0  0  0  0  0  0  0  0  0  0  0
    4.7465    1.5526   -1.9262 C   0  0  0  0  0  0  0  0  0  0  0  0
    6.0565    1.2690   -2.2664 C   0  0  0  0  0  0  0  0  0  0  0  0
    7.0007    0.8624   -1.3468 C   0  0  0  0  0  0  0  0  0  0  0  0
    6.6456    0.7254   -0.0225 C   0  0  0  0  0  0  0  0  0  0  0  0
    5.3427    1.0074    0.3168 C   0  0  0  0  0  0  0  0  0  0  0  0
    3.0336   -2.9329    1.3939 H   0  0  0  0  0  0  0  0  0  0  0  0
    1.5790   -3.8469    2.0369 H   0  0  0  0  0  0  0  0  0  0  0  0
    2.0963   -2.2772    2.7526 H   0  0  0  0  0  0  0  0  0  0  0  0
    1.9022   -3.1587   -0.7302 H   0  0  0  0  0  0  0  0  0  0  0  0
    0.3768   -3.7740   -0.0956 H   0  0  0  0  0  0  0  0  0  0  0  0
    0.9122   -1.5978   -2.1381 H   0  0  0  0  0  0  0  0  0  0  0  0
   -0.4242   -2.6918   -1.9023 H   0  0  0  0  0  0  0  0  0  0  0  0
    0.5505   -0.8716    2.3811 H   0  0  0  0  0  0  0  0  0  0  0  0
   -0.5906   -3.2857    1.9765 H   0  0  0  0  0  0  0  0  0  0  0  0
   -1.3882   -1.9607    2.8465 H   0  0  0  0  0  0  0  0  0  0  0  0
   -0.5062    0.2243   -2.5970 H   0  0  0  0  0  0  0  0  0  0  0  0
   -0.9576    1.2214    1.8274 H   0  0  0  0  0  0  0  0  0  0  0  0
   -2.1193   -0.0912    1.5985 H   0  0  0  0  0  0  0  0  0  0  0  0
   -2.9254    2.7948    2.3525 H   0  0  0  0  0  0  0  0  0  0  0  0
   -4.4108    4.8182    2.1384 H   0  0  0  0  0  0  0  0  0  0  0  0
   -5.1167    5.4909   -0.1403 H   0  0  0  0  0  0  0  0  0  0  0  0
   -4.4335    4.2845   -2.1186 H   0  0  0  0  0  0  0  0  0  0  0  0
   -2.9305    2.0976   -2.9525 H   0  0  0  0  0  0  0  0  0  0  0  0
   -5.1124   -3.6104    0.1857 H   0  0  0  0  0  0  0  0  0  0  0  0
   -3.3835   -3.5385    1.9712 H   0  0  0  0  0  0  0  0  0  0  0  0
   -5.0435   -3.2980   -2.6994 H   0  0  0  0  0  0  0  0  0  0  0  0
    0.4995    1.6641   -0.1935 H   0  0  0  0  0  0  0  0  0  0  0  0
    1.0079    1.1631    1.4150 H   0  0  0  0  0  0  0  0  0  0  0  0
    2.1190    0.1938   -1.2455 H   0  0  0  0  0  0  0  0  0  0  0  0
    2.7571   -0.3309    0.4246 H   0  0  0  0  0  0  0  0  0  0  0  0
    2.5968    2.4528   -0.7813 H   0  0  0  0  0  0  0  0  0  0  0  0
    3.0469    2.1203    0.9099 H   0  0  0  0  0  0  0  0  0  0  0  0
    4.0032    1.8731   -2.6527 H   0  0  0  0  0  0  0  0  0  0  0  0
    6.3821    1.3614   -3.2894 H   0  0  0  0  0  0  0  0  0  0  0  0
    8.0295    0.6376   -1.6020 H   0  0  0  0  0  0  0  0  0  0  0  0
    7.3515    0.4073    0.7464 H   0  0  0  0  0  0  0  0  0  0  0  0
    5.0794    0.8928    1.3738 H   0  0  0  0  0  0  0  0  0  0  0  0
  1  2  1  0
  2  3  1  0
  3  4  1  0
  5  4  1  6
  5  6  1  0
  6  7  1  0
  7  8  1  0
  8  9  1  0
  9 10  2  0
 10 11  1  0
 11 12  1  0
 12 13  1  0
 13 14  1  0
 14 15  2  0
 15 16  1  0
 15 17  1  0
 17 18  2  0
 18 19  1  0
 19 20  2  0
 20 21  1  0
 21 22  2  0
 22 23  1  0
 11 24  2  0
 24 25  1  0
 25 26  2  0
 24 27  1  0
  6 28  1  6
 28 29  1  0
 29 30  1  0
 30 31  1  0
 31 32  2  0
 32 33  1  0
 33 34  2  0
 34 35  1  0
 35 36  2  0
  7  2  1  0
 26  9  1  0
 36 31  1  0
 10  5  1  0
 23 14  1  0
 13  5  1  0
 22 17  1  0
 16  6  1  0
  1 37  1  0
  1 38  1  0
  1 39  1  0
  3 40  1  0
  3 41  1  0
  4 42  1  0
  4 43  1  0
  7 44  1  0
  8 45  1  0
  8 46  1  0
 13 47  1  6
 16 48  1  0
 16 49  1  0
 18 50  1  0
 19 51  1  0
 20 52  1  0
 21 53  1  0
 23 54  1  0
 25 55  1  0
 26 56  1  0
 27 57  1  0
 28 58  1  0
 28 59  1  0
 29 60  1  0
 29 61  1  0
 30 62  1  0
 30 63  1  0
 32 64  1  0
 33 65  1  0
 34 66  1  0
 35 67  1  0
 36 68  1  0
M  END
>  <Ligand ID>  (1) 
LIG0004605

>  <Ligand>  (1) 
CHEMBL2113380

>  <SMILES>  (1) 
CN1CC[C@]23[C@@]4(C1Cc1c2c(O[C@H]3c2c(C4)c3ccccc3[nH]2)c(cc1)O)CCCc1ccccc1

>  <CID>  (1) 
71461668.0

>  <ChEMBL ID>  (1) 
nan

>  <InChiKey>  (1) 
PPEVMLHWEDYTPY-MZIILFHFSA-N

>  <InChi>  (1) 
InChI=1S/C32H32N2O2/c1-34-17-16-32-27-21-13-14-25(35)29(27)36-30(32)28-23(22-11-5-6-12-24(22)33-28)19-31(32,26(34)18-21)15-7-10-20-8-3-2-4-9-20/h2-6,8-9,11-14,26,30,33,35H,7,10,15-19H2,1H3/t26?,30-,31-,32-/m0/s1

>  <IUPAC Name>  (1) 
(1S,2R,13R)-22-methyl-2-(3-phenylpropyl)-14-oxa-11,22-diazaheptacyclo[13.9.1.01,13.02,21.04,12.05,10.019,25]pentacosa-4(12),5,7,9,15,17,19(25)-heptaen-16-ol

$$$$
