
     RDKit          3D

 53 55  0  0  0  0  0  0  0  0999 V2000
    8.1645    1.7681    0.7635 C   0  0  0  0  0  0  0  0  0  0  0  0
    7.2130    0.8176    0.1614 C   0  0  0  0  0  0  0  0  0  0  0  0
    6.4259    0.0523   -0.3343 C   0  0  0  0  0  0  0  0  0  0  0  0
    5.4599   -0.8787   -0.9665 C   0  0  2  0  0  0  0  0  0  0  0  0
    4.0808   -0.4124   -0.6734 C   0  0  0  0  0  0  0  0  0  0  0  0
    3.5901   -0.2487    0.6042 C   0  0  0  0  0  0  0  0  0  0  0  0
    2.3063    0.1855    0.8684 C   0  0  0  0  0  0  0  0  0  0  0  0
    1.4944    0.4625   -0.2116 C   0  0  0  0  0  0  0  0  0  0  0  0
    1.9927    0.2963   -1.4954 C   0  0  0  0  0  0  0  0  0  0  0  0
    3.2711   -0.1361   -1.7554 C   0  0  0  0  0  0  0  0  0  0  0  0
    0.1854    0.9055   -0.0906 O   0  0  0  0  0  0  0  0  0  0  0  0
   -0.6318    1.1847   -1.2121 C   0  0  0  0  0  0  0  0  0  0  0  0
   -1.9583    1.6327   -0.7175 C   0  0  0  0  0  0  0  0  0  0  0  0
   -2.1449    2.9890   -0.4976 C   0  0  0  0  0  0  0  0  0  0  0  0
   -3.3523    3.5005   -0.0354 C   0  0  0  0  0  0  0  0  0  0  0  0
   -4.4156    2.6289    0.2179 C   0  0  0  0  0  0  0  0  0  0  0  0
   -4.2075    1.2690   -0.0095 C   0  0  0  0  0  0  0  0  0  0  0  0
   -3.0048    0.7786   -0.4677 C   0  0  0  0  0  0  0  0  0  0  0  0
   -5.3419    0.3913    0.2667 C   0  0  0  0  0  0  0  0  0  0  0  0
   -6.2700    0.6523    1.2556 C   0  0  0  0  0  0  0  0  0  0  0  0
   -7.3316   -0.2332    1.4634 C   0  0  0  0  0  0  0  0  0  0  0  0
   -7.4394   -1.3625    0.6740 C   0  0  0  0  0  0  0  0  0  0  0  0
   -6.5085   -1.6274   -0.3203 C   0  0  0  0  0  0  0  0  0  0  0  0
   -5.4462   -0.7509   -0.5357 C   0  0  0  0  0  0  0  0  0  0  0  0
   -8.5450   -2.3529    0.8371 C   0  0  0  0  0  0  0  0  0  0  0  0
   -8.1175   -3.6484    0.6981 F   0  0  0  0  0  0  0  0  0  0  0  0
   -9.5566   -2.1486   -0.0869 F   0  0  0  0  0  0  0  0  0  0  0  0
   -9.1413   -2.2433    2.0854 F   0  0  0  0  0  0  0  0  0  0  0  0
    5.6468   -2.2110   -0.2732 C   0  0  0  0  0  0  0  0  0  0  0  0
    7.0335   -2.7186   -0.4380 C   0  0  0  0  0  0  0  0  0  0  0  0
    7.8771   -2.0386   -1.0981 O   0  0  0  0  0  0  0  0  0  0  0  0
    7.3853   -3.9213    0.1280 O   0  0  0  0  0  0  0  0  0  0  0  0
    7.9984    2.8031    0.3614 H   0  0  0  0  0  0  0  0  0  0  0  0
    8.0832    1.8351    1.8548 H   0  0  0  0  0  0  0  0  0  0  0  0
    9.1743    1.4894    0.4023 H   0  0  0  0  0  0  0  0  0  0  0  0
    5.6710   -0.9471   -2.0494 H   0  0  0  0  0  0  0  0  0  0  0  0
    4.2713   -0.4808    1.4140 H   0  0  0  0  0  0  0  0  0  0  0  0
    1.9247    0.3128    1.8717 H   0  0  0  0  0  0  0  0  0  0  0  0
    1.3610    0.5119   -2.3418 H   0  0  0  0  0  0  0  0  0  0  0  0
    3.6395   -0.2587   -2.7638 H   0  0  0  0  0  0  0  0  0  0  0  0
   -0.1881    1.9880   -1.8372 H   0  0  0  0  0  0  0  0  0  0  0  0
   -0.6974    0.2094   -1.7770 H   0  0  0  0  0  0  0  0  0  0  0  0
   -1.3620    3.7225   -0.6735 H   0  0  0  0  0  0  0  0  0  0  0  0
   -3.4942    4.5552    0.1344 H   0  0  0  0  0  0  0  0  0  0  0  0
   -5.3764    2.9967    0.5813 H   0  0  0  0  0  0  0  0  0  0  0  0
   -2.8823   -0.2766   -0.6311 H   0  0  0  0  0  0  0  0  0  0  0  0
   -6.1545    1.5422    1.8517 H   0  0  0  0  0  0  0  0  0  0  0  0
   -8.0644   -0.0462    2.2295 H   0  0  0  0  0  0  0  0  0  0  0  0
   -6.6127   -2.5309   -0.9366 H   0  0  0  0  0  0  0  0  0  0  0  0
   -4.7208   -0.9568   -1.3102 H   0  0  0  0  0  0  0  0  0  0  0  0
    5.4971   -2.0388    0.8194 H   0  0  0  0  0  0  0  0  0  0  0  0
    4.8707   -2.9537   -0.5697 H   0  0  0  0  0  0  0  0  0  0  0  0
    8.3484   -4.0590    0.4439 H   0  0  0  0  0  0  0  0  0  0  0  0
  1  2  1  0
  2  3  3  0
  3  4  1  0
  4  5  1  0
  5  6  2  0
  6  7  1  0
  7  8  2  0
  8  9  1  0
  9 10  2  0
  8 11  1  0
 11 12  1  0
 12 13  1  0
 13 14  2  0
 14 15  1  0
 15 16  2  0
 16 17  1  0
 17 18  2  0
 17 19  1  0
 19 20  2  0
 20 21  1  0
 21 22  2  0
 22 23  1  0
 23 24  2  0
 22 25  1  0
 25 26  1  0
 25 27  1  0
 25 28  1  0
  4 29  1  0
 29 30  1  0
 30 31  2  0
 30 32  1  0
 10  5  1  0
 18 13  1  0
 24 19  1  0
  1 33  1  0
  1 34  1  0
  1 35  1  0
  4 36  1  6
  6 37  1  0
  7 38  1  0
  9 39  1  0
 10 40  1  0
 12 41  1  0
 12 42  1  0
 14 43  1  0
 15 44  1  0
 16 45  1  0
 18 46  1  0
 20 47  1  0
 21 48  1  0
 23 49  1  0
 24 50  1  0
 29 51  1  0
 29 52  1  0
 32 53  1  0
M  END
>  <Ligand ID>  (1) 
LIG0003552

>  <Ligand>  (1) 
AMG-837

>  <SMILES>  (1) 
CC#C[C@H](c1ccc(cc1)OCc1cccc(c1)c1ccc(cc1)C(F)(F)F)CC(=O)O

>  <CID>  (1) 
46854655.0

>  <ChEMBL ID>  (1) 
nan

>  <InChiKey>  (1) 
ZOPNBMMVVZRSGH-NRFANRHFSA-N

>  <InChi>  (1) 
InChI=1S/C26H21F3O3/c1-2-4-21(16-25(30)31)20-9-13-24(14-10-20)32-17-18-5-3-6-22(15-18)19-7-11-23(12-8-19)26(27,28)29/h3,5-15,21H,16-17H2,1H3,(H,30,31)/t21-/m0/s1

>  <IUPAC Name>  (1) 
(3S)-3-[4-[[3-[4-(trifluoromethyl)phenyl]phenyl]methoxy]phenyl]hex-4-ynoic acid

$$$$
