
     RDKit          3D

129132  0  0  0  0  0  0  0  0999 V2000
   11.1810   -4.0005   -2.3326 C   0  0  0  0  0  0  0  0  0  0  0  0
   11.7909   -2.9967   -1.3706 C   0  0  0  0  0  0  0  0  0  0  0  0
   12.2347   -3.6682   -0.0768 C   0  0  0  0  0  0  0  0  0  0  0  0
   12.8130   -2.6885    0.8622 C   0  0  0  0  0  0  0  0  0  0  0  0
   11.9278   -1.6256    1.3844 C   0  0  0  0  0  0  0  0  0  0  0  0
   10.8017   -1.9446    2.2566 C   0  0  0  0  0  0  0  0  0  0  0  0
    9.6052   -2.6829    1.8765 C   0  0  0  0  0  0  0  0  0  0  0  0
    8.7398   -1.9624    0.8410 C   0  0  0  0  0  0  0  0  0  0  0  0
    8.2829   -0.6525    1.3857 C   0  0  0  0  0  0  0  0  0  0  0  0
    7.4099    0.1138    0.3767 C   0  0  0  0  0  0  0  0  0  0  0  0
    7.0110    1.3840    1.0593 C   0  0  0  0  0  0  0  0  0  0  0  0
    6.1921    2.3644    0.3439 C   0  0  0  0  0  0  0  0  0  0  0  0
    4.8594    1.9733   -0.1997 C   0  0  0  0  0  0  0  0  0  0  0  0
    3.9176    1.3848    0.7722 C   0  0  0  0  0  0  0  0  0  0  0  0
    4.2710    0.7309    1.7887 O   0  0  0  0  0  0  0  0  0  0  0  0
    2.4980    1.5598    0.5545 N   0  0  0  0  0  0  0  0  0  0  0  0
    1.5204    0.9749    1.4046 C   0  0  2  0  0  0  0  0  0  0  0  0
    0.1191    1.0088    0.9476 C   0  0  0  0  0  0  0  0  0  0  0  0
   -0.6430    0.1643    1.5573 O   0  0  0  0  0  0  0  0  0  0  0  0
   -0.4083    1.8494   -0.0409 N   0  0  0  0  0  0  0  0  0  0  0  0
   -1.7005    1.9969   -0.5968 C   0  0  1  0  0  0  0  0  0  0  0  0
   -2.8700    1.4311    0.1246 C   0  0  0  0  0  0  0  0  0  0  0  0
   -2.8887    0.8776    1.2255 O   0  0  0  0  0  0  0  0  0  0  0  0
   -4.1102    1.5444   -0.5691 N   0  0  0  0  0  0  0  0  0  0  0  0
   -5.3640    0.8997    0.0930 C   0  0  2  0  0  0  0  0  0  0  0  0
   -5.9992    0.3089   -1.0903 C   0  0  0  0  0  0  0  0  0  0  0  0
   -5.5924    0.8781   -2.2063 O   0  0  0  0  0  0  0  0  0  0  0  0
   -6.9203   -0.7157   -1.2911 N   0  0  0  0  0  0  0  0  0  0  0  0
   -7.3137   -1.0234   -2.6477 C   0  0  2  0  0  0  0  0  0  0  0  0
   -8.6612   -0.4780   -3.0082 C   0  0  0  0  0  0  0  0  0  0  0  0
   -9.1349   -0.6879   -4.1564 O   0  0  0  0  0  0  0  0  0  0  0  0
   -9.4578    0.2805   -2.1181 N   0  0  0  0  0  0  0  0  0  0  0  0
   -7.1590   -2.4606   -3.0006 C   0  0  0  0  0  0  0  0  0  0  0  0
   -7.9006   -3.4622   -2.2537 C   0  0  0  0  0  0  0  0  0  0  0  0
   -9.1136   -4.0012   -2.7200 C   0  0  0  0  0  0  0  0  0  0  0  0
   -9.5904   -4.8958   -1.8507 N   0  0  0  0  0  0  0  0  0  0  0  0
   -8.7224   -4.9603   -0.8203 C   0  0  0  0  0  0  0  0  0  0  0  0
   -7.6818   -4.0911   -1.0463 C   0  0  0  0  0  0  0  0  0  0  0  0
   -6.6578   -3.9828   -0.1436 C   0  0  0  0  0  0  0  0  0  0  0  0
   -6.6586   -4.7512    1.0152 C   0  0  0  0  0  0  0  0  0  0  0  0
   -7.6890   -5.6148    1.2456 C   0  0  0  0  0  0  0  0  0  0  0  0
   -8.7282   -5.7223    0.3246 C   0  0  0  0  0  0  0  0  0  0  0  0
   -5.9558    2.1074    0.7188 C   0  0  0  0  0  0  0  0  0  0  0  0
   -7.1236    2.1952    1.5547 C   0  0  0  0  0  0  0  0  0  0  0  0
   -8.4939    1.8245    1.1797 C   0  0  0  0  0  0  0  0  0  0  0  0
   -8.6817    0.4394    0.9223 N   0  0  0  0  0  0  0  0  0  0  0  0
   -9.7364   -0.2052    1.2879 C   0  0  0  0  0  0  0  0  0  0  0  0
   -9.8147   -1.5849    0.9747 N   0  0  0  0  0  0  0  0  0  0  0  0
  -10.8240    0.3819    1.9801 N   0  0  0  0  0  0  0  0  0  0  0  0
   -1.9393    3.3649   -1.1376 C   0  0  0  0  0  0  0  0  0  0  0  0
   -1.0502    3.7767   -2.2472 C   0  0  0  0  0  0  0  0  0  0  0  0
   -1.5052    3.4644   -3.5289 C   0  0  0  0  0  0  0  0  0  0  0  0
   -0.7563    3.8193   -4.6148 C   0  0  0  0  0  0  0  0  0  0  0  0
    0.4537    4.4804   -4.5607 C   0  0  0  0  0  0  0  0  0  0  0  0
    0.8849    4.7822   -3.2510 C   0  0  0  0  0  0  0  0  0  0  0  0
    0.1316    4.4274   -2.1460 C   0  0  0  0  0  0  0  0  0  0  0  0
    1.5598    1.4460    2.8425 C   0  0  0  0  0  0  0  0  0  0  0  0
    1.3974    2.8911    2.9547 C   0  0  0  0  0  0  0  0  0  0  0  0
    1.3759    3.4949    4.1954 N   0  0  0  0  0  0  0  0  0  0  0  0
    1.2318    4.8120    4.0681 C   0  0  0  0  0  0  0  0  0  0  0  0
    1.1581    5.0900    2.7655 N   0  0  0  0  0  0  0  0  0  0  0  0
    1.2593    3.9203    2.0821 C   0  0  0  0  0  0  0  0  0  0  0  0
   11.7849   -4.9363   -2.3263 H   0  0  0  0  0  0  0  0  0  0  0  0
   10.1545   -4.1987   -1.9996 H   0  0  0  0  0  0  0  0  0  0  0  0
   11.1572   -3.5698   -3.3494 H   0  0  0  0  0  0  0  0  0  0  0  0
   12.7157   -2.6231   -1.9226 H   0  0  0  0  0  0  0  0  0  0  0  0
   11.1745   -2.1272   -1.2509 H   0  0  0  0  0  0  0  0  0  0  0  0
   13.1132   -4.3446   -0.4060 H   0  0  0  0  0  0  0  0  0  0  0  0
   11.4269   -4.3055    0.2853 H   0  0  0  0  0  0  0  0  0  0  0  0
   13.7224   -2.2388    0.3300 H   0  0  0  0  0  0  0  0  0  0  0  0
   13.3230   -3.2371    1.7263 H   0  0  0  0  0  0  0  0  0  0  0  0
   11.5397   -0.9887    0.5192 H   0  0  0  0  0  0  0  0  0  0  0  0
   12.5683   -0.8664    1.9550 H   0  0  0  0  0  0  0  0  0  0  0  0
   10.4506   -0.9427    2.6923 H   0  0  0  0  0  0  0  0  0  0  0  0
   11.2454   -2.4116    3.2202 H   0  0  0  0  0  0  0  0  0  0  0  0
    8.9124   -2.7144    2.7976 H   0  0  0  0  0  0  0  0  0  0  0  0
    9.6953   -3.7440    1.6264 H   0  0  0  0  0  0  0  0  0  0  0  0
    9.2455   -1.8498   -0.1141 H   0  0  0  0  0  0  0  0  0  0  0  0
    7.7970   -2.5700    0.6779 H   0  0  0  0  0  0  0  0  0  0  0  0
    9.1295    0.0414    1.6636 H   0  0  0  0  0  0  0  0  0  0  0  0
    7.7279   -0.7931    2.3409 H   0  0  0  0  0  0  0  0  0  0  0  0
    7.9827    0.2874   -0.5477 H   0  0  0  0  0  0  0  0  0  0  0  0
    6.5228   -0.5306    0.1698 H   0  0  0  0  0  0  0  0  0  0  0  0
    7.9675    1.9029    1.4151 H   0  0  0  0  0  0  0  0  0  0  0  0
    6.5556    1.0885    2.0627 H   0  0  0  0  0  0  0  0  0  0  0  0
    6.0844    3.3119    0.9815 H   0  0  0  0  0  0  0  0  0  0  0  0
    6.8190    2.7817   -0.5157 H   0  0  0  0  0  0  0  0  0  0  0  0
    4.4086    2.9356   -0.6009 H   0  0  0  0  0  0  0  0  0  0  0  0
    4.9417    1.3402   -1.1217 H   0  0  0  0  0  0  0  0  0  0  0  0
    2.2641    2.1568   -0.2832 H   0  0  0  0  0  0  0  0  0  0  0  0
    1.8637   -0.1295    1.5256 H   0  0  0  0  0  0  0  0  0  0  0  0
    0.3307    2.4976   -0.4971 H   0  0  0  0  0  0  0  0  0  0  0  0
   -1.6909    1.2800   -1.5322 H   0  0  0  0  0  0  0  0  0  0  0  0
   -4.2560    2.0139   -1.4714 H   0  0  0  0  0  0  0  0  0  0  0  0
   -4.9886    0.2107    0.8534 H   0  0  0  0  0  0  0  0  0  0  0  0
   -7.2656   -1.2328   -0.4683 H   0  0  0  0  0  0  0  0  0  0  0  0
   -6.6371   -0.4784   -3.3963 H   0  0  0  0  0  0  0  0  0  0  0  0
  -10.2054   -0.2514   -1.5827 H   0  0  0  0  0  0  0  0  0  0  0  0
   -9.3707    1.3000   -1.9421 H   0  0  0  0  0  0  0  0  0  0  0  0
   -7.3316   -2.6217   -4.1021 H   0  0  0  0  0  0  0  0  0  0  0  0
   -6.0401   -2.6748   -2.8397 H   0  0  0  0  0  0  0  0  0  0  0  0
   -9.6164   -3.7387   -3.6646 H   0  0  0  0  0  0  0  0  0  0  0  0
  -10.4644   -5.4825   -1.8914 H   0  0  0  0  0  0  0  0  0  0  0  0
   -5.8434   -3.2762   -0.3626 H   0  0  0  0  0  0  0  0  0  0  0  0
   -5.8708   -4.6962    1.7487 H   0  0  0  0  0  0  0  0  0  0  0  0
   -7.7517   -6.2461    2.1208 H   0  0  0  0  0  0  0  0  0  0  0  0
   -9.5640   -6.4223    0.5019 H   0  0  0  0  0  0  0  0  0  0  0  0
   -5.0666    2.6490    1.2786 H   0  0  0  0  0  0  0  0  0  0  0  0
   -6.1035    2.9175   -0.1179 H   0  0  0  0  0  0  0  0  0  0  0  0
   -7.2057    3.3160    1.8654 H   0  0  0  0  0  0  0  0  0  0  0  0
   -6.8731    1.7672    2.5950 H   0  0  0  0  0  0  0  0  0  0  0  0
   -8.8911    2.4488    0.3203 H   0  0  0  0  0  0  0  0  0  0  0  0
   -9.2415    2.0841    2.0017 H   0  0  0  0  0  0  0  0  0  0  0  0
  -10.1355   -2.3072    1.6875 H   0  0  0  0  0  0  0  0  0  0  0  0
   -9.5624   -1.9328    0.0407 H   0  0  0  0  0  0  0  0  0  0  0  0
  -11.5531    0.9875    1.5267 H   0  0  0  0  0  0  0  0  0  0  0  0
  -10.9458    0.2231    3.0092 H   0  0  0  0  0  0  0  0  0  0  0  0
   -3.0092    3.5400   -1.4099 H   0  0  0  0  0  0  0  0  0  0  0  0
   -1.7869    4.1099   -0.2905 H   0  0  0  0  0  0  0  0  0  0  0  0
   -2.4497    2.9455   -3.6719 H   0  0  0  0  0  0  0  0  0  0  0  0
   -1.1116    3.5813   -5.6203 H   0  0  0  0  0  0  0  0  0  0  0  0
    1.0159    4.7394   -5.4268 H   0  0  0  0  0  0  0  0  0  0  0  0
    1.8103    5.2982   -3.1084 H   0  0  0  0  0  0  0  0  0  0  0  0
    0.5075    4.7013   -1.1704 H   0  0  0  0  0  0  0  0  0  0  0  0
    0.6959    0.9048    3.3464 H   0  0  0  0  0  0  0  0  0  0  0  0
    2.5195    1.0945    3.2944 H   0  0  0  0  0  0  0  0  0  0  0  0
    1.4586    3.0135    5.1307 H   0  0  0  0  0  0  0  0  0  0  0  0
    1.1795    5.5425    4.8686 H   0  0  0  0  0  0  0  0  0  0  0  0
    1.2395    3.8857    1.0240 H   0  0  0  0  0  0  0  0  0  0  0  0
  1  2  1  0
  2  3  1  0
  3  4  1  0
  4  5  1  0
  5  6  1  0
  6  7  1  0
  7  8  1  0
  8  9  1  0
  9 10  1  0
 10 11  1  0
 11 12  1  0
 12 13  1  0
 13 14  1  0
 14 15  2  0
 14 16  1  0
 16 17  1  0
 17 18  1  0
 18 19  2  0
 18 20  1  0
 20 21  1  0
 21 22  1  0
 22 23  2  0
 22 24  1  0
 24 25  1  0
 25 26  1  0
 26 27  2  0
 26 28  1  0
 28 29  1  0
 29 30  1  0
 30 31  2  0
 30 32  1  0
 29 33  1  0
 33 34  1  0
 34 35  2  0
 35 36  1  0
 36 37  1  0
 37 38  2  0
 38 39  1  0
 39 40  2  0
 40 41  1  0
 41 42  2  0
 25 43  1  0
 43 44  1  0
 44 45  1  0
 45 46  1  0
 46 47  2  3
 47 48  1  0
 47 49  1  0
 21 50  1  0
 50 51  1  0
 51 52  2  0
 52 53  1  0
 53 54  2  0
 54 55  1  0
 55 56  2  0
 17 57  1  0
 57 58  1  0
 58 59  1  0
 59 60  1  0
 60 61  2  0
 61 62  1  0
 38 34  1  0
 56 51  1  0
 62 58  2  0
 42 37  1  0
  1 63  1  0
  1 64  1  0
  1 65  1  0
  2 66  1  0
  2 67  1  0
  3 68  1  0
  3 69  1  0
  4 70  1  0
  4 71  1  0
  5 72  1  0
  5 73  1  0
  6 74  1  0
  6 75  1  0
  7 76  1  0
  7 77  1  0
  8 78  1  0
  8 79  1  0
  9 80  1  0
  9 81  1  0
 10 82  1  0
 10 83  1  0
 11 84  1  0
 11 85  1  0
 12 86  1  0
 12 87  1  0
 13 88  1  0
 13 89  1  0
 16 90  1  0
 17 91  1  1
 20 92  1  0
 21 93  1  6
 24 94  1  0
 25 95  1  1
 28 96  1  0
 29 97  1  6
 32 98  1  0
 32 99  1  0
 33100  1  0
 33101  1  0
 35102  1  0
 36103  1  0
 39104  1  0
 40105  1  0
 41106  1  0
 42107  1  0
 43108  1  0
 43109  1  0
 44110  1  0
 44111  1  0
 45112  1  0
 45113  1  0
 48114  1  0
 48115  1  0
 49116  1  0
 49117  1  0
 50118  1  0
 50119  1  0
 52120  1  0
 53121  1  0
 54122  1  0
 55123  1  0
 56124  1  0
 57125  1  0
 57126  1  0
 59127  1  0
 60128  1  0
 62129  1  0
M  END
>  <Ligand ID>  (1) 
LIG0001887

>  <Ligand>  (1) 
CHEMBL370261

>  <SMILES>  (1) 
CCCCCCCCCCCCCC(=O)N[C@H](C(=O)N[C@@H](C(=O)N[C@H](C(=O)N[C@H](C(=O)N)Cc1c[nH]c2c1cccc2)CCCN=C(N)N)Cc1ccccc1)Cc1[nH]cnc1

>  <CID>  (1) 
11239907.0

>  <ChEMBL ID>  (1) 
nan

>  <InChiKey>  (1) 
DPZNJGKLXUVILJ-YOEXWAKESA-N

>  <InChi>  (1) 
InChI=1S/C46H67N11O5/c1-2-3-4-5-6-7-8-9-10-11-15-24-41(58)54-40(28-34-30-50-31-53-34)45(62)57-39(26-32-19-13-12-14-20-32)44(61)55-37(23-18-25-51-46(48)49)43(60)56-38(42(47)59)27-33-29-52-36-22-17-16-21-35(33)36/h12-14,16-17,19-22,29-31,37-40,52H,2-11,15,18,23-28H2,1H3,(H2,47,59)(H,50,53)(H,54,58)(H,55,61)(H,56,60)(H,57,62)(H4,48,49,51)/t37-,38-,39+,40-/m0/s1

>  <IUPAC Name>  (1) 
N-[(2S)-1-[[(2R)-1-[[(2S)-1-[[(2S)-1-amino-3-(1H-indol-3-yl)-1-oxopropan-2-yl]amino]-5-(diaminomethylideneamino)-1-oxopentan-2-yl]amino]-1-oxo-3-phenylpropan-2-yl]amino]-3-(1H-imidazol-5-yl)-1-oxopropan-2-yl]tetradecanamide

$$$$
