
     RDKit          3D

 58 62  0  0  0  0  0  0  0  0999 V2000
    1.4073   -0.4454    0.9076 O   0  0  0  0  0  0  0  0  0  0  0  0
    0.8204   -0.8806   -0.0974 C   0  0  0  0  0  0  0  0  0  0  0  0
   -0.5772   -1.2141    0.1130 N   0  0  0  0  0  0  0  0  0  0  0  0
   -1.4165   -1.7235   -0.9525 C   0  0  0  0  0  0  0  0  0  0  0  0
   -2.2419   -2.9036   -0.4957 C   0  0  2  0  0  0  0  0  0  0  0  0
   -3.3836   -3.2257   -1.4250 C   0  0  0  0  0  0  0  0  0  0  0  0
   -4.5302   -3.6216   -0.5065 C   0  0  0  0  0  0  0  0  0  0  0  0
   -3.9482   -3.4923    0.8859 C   0  0  0  0  0  0  0  0  0  0  0  0
   -2.9737   -2.4499    0.6958 N   0  0  0  0  0  0  0  0  0  0  0  0
   -2.0091   -2.3425    1.7431 C   0  0  0  0  0  0  0  0  0  0  0  0
   -1.2073   -1.0669    1.4089 C   0  0  2  0  0  0  0  0  0  0  0  0
   -2.2053    0.0366    1.4943 C   0  0  0  0  0  0  0  0  0  0  0  0
   -1.6983    1.3869    1.2224 C   0  0  0  0  0  0  0  0  0  0  0  0
   -1.2220    2.1644    2.2764 C   0  0  0  0  0  0  0  0  0  0  0  0
   -0.7314    3.4428    2.0888 C   0  0  0  0  0  0  0  0  0  0  0  0
   -0.7062    3.9857    0.8099 C   0  0  0  0  0  0  0  0  0  0  0  0
   -1.1744    3.2366   -0.2667 C   0  0  0  0  0  0  0  0  0  0  0  0
   -1.6524    1.9678   -0.0246 C   0  0  0  0  0  0  0  0  0  0  0  0
    1.3407   -1.0978   -1.4364 C   0  0  0  0  0  0  0  0  0  0  0  0
    2.7352   -0.7792   -1.7828 C   0  0  0  0  0  0  0  0  0  0  0  0
    3.2255    0.5793   -1.6592 C   0  0  0  0  0  0  0  0  0  0  0  0
    3.1110    1.5240   -2.6966 C   0  0  0  0  0  0  0  0  0  0  0  0
    3.5882    2.7018   -2.2898 N   0  0  0  0  0  0  0  0  0  0  0  0
    4.0228    2.6086   -1.0295 C   0  0  0  0  0  0  0  0  0  0  0  0
    3.8012    1.3017   -0.6384 C   0  0  0  0  0  0  0  0  0  0  0  0
    4.1954    0.9595    0.6309 C   0  0  0  0  0  0  0  0  0  0  0  0
    4.7765    1.9020    1.4451 C   0  0  0  0  0  0  0  0  0  0  0  0
    5.0042    3.2091    1.0770 C   0  0  0  0  0  0  0  0  0  0  0  0
    4.6037    3.5581   -0.2195 C   0  0  0  0  0  0  0  0  0  0  0  0
   -0.8415   -2.0464   -1.8367 H   0  0  0  0  0  0  0  0  0  0  0  0
   -2.1426   -0.9557   -1.3084 H   0  0  0  0  0  0  0  0  0  0  0  0
   -1.6129   -3.7696   -0.2394 H   0  0  0  0  0  0  0  0  0  0  0  0
   -3.1032   -4.1304   -1.9999 H   0  0  0  0  0  0  0  0  0  0  0  0
   -3.6525   -2.3670   -2.0673 H   0  0  0  0  0  0  0  0  0  0  0  0
   -5.3260   -2.8717   -0.6350 H   0  0  0  0  0  0  0  0  0  0  0  0
   -4.8773   -4.6555   -0.7164 H   0  0  0  0  0  0  0  0  0  0  0  0
   -4.7552   -3.0772    1.5562 H   0  0  0  0  0  0  0  0  0  0  0  0
   -3.5251   -4.4264    1.2821 H   0  0  0  0  0  0  0  0  0  0  0  0
   -1.2628   -3.1605    1.6619 H   0  0  0  0  0  0  0  0  0  0  0  0
   -2.4201   -2.2364    2.7521 H   0  0  0  0  0  0  0  0  0  0  0  0
   -0.4348   -0.9876    2.1943 H   0  0  0  0  0  0  0  0  0  0  0  0
   -3.0818   -0.1593    0.8065 H   0  0  0  0  0  0  0  0  0  0  0  0
   -2.6715   -0.0439    2.5149 H   0  0  0  0  0  0  0  0  0  0  0  0
   -1.2350    1.7486    3.2975 H   0  0  0  0  0  0  0  0  0  0  0  0
   -0.3705    4.0107    2.9422 H   0  0  0  0  0  0  0  0  0  0  0  0
   -0.3289    4.9866    0.6184 H   0  0  0  0  0  0  0  0  0  0  0  0
   -1.1478    3.6777   -1.2689 H   0  0  0  0  0  0  0  0  0  0  0  0
   -2.0129    1.3945   -0.8683 H   0  0  0  0  0  0  0  0  0  0  0  0
    0.6193   -0.5736   -2.1385 H   0  0  0  0  0  0  0  0  0  0  0  0
    1.1595   -2.1930   -1.7379 H   0  0  0  0  0  0  0  0  0  0  0  0
    2.8958   -1.0839   -2.8688 H   0  0  0  0  0  0  0  0  0  0  0  0
    3.4802   -1.4381   -1.2525 H   0  0  0  0  0  0  0  0  0  0  0  0
    2.7045    1.3509   -3.6745 H   0  0  0  0  0  0  0  0  0  0  0  0
    3.6258    3.5940   -2.8671 H   0  0  0  0  0  0  0  0  0  0  0  0
    4.0407   -0.0638    0.9332 H   0  0  0  0  0  0  0  0  0  0  0  0
    5.0894    1.6208    2.4607 H   0  0  0  0  0  0  0  0  0  0  0  0
    5.4570    3.9505    1.7068 H   0  0  0  0  0  0  0  0  0  0  0  0
    4.7759    4.5840   -0.5258 H   0  0  0  0  0  0  0  0  0  0  0  0
  1  2  2  0
  2  3  1  0
  3  4  1  0
  4  5  1  0
  5  6  1  0
  6  7  1  0
  7  8  1  0
  8  9  1  0
  9 10  1  0
 10 11  1  0
 11 12  1  0
 12 13  1  0
 13 14  2  0
 14 15  1  0
 15 16  2  0
 16 17  1  0
 17 18  2  0
  2 19  1  0
 19 20  1  0
 20 21  1  0
 21 22  2  0
 22 23  1  0
 23 24  1  0
 24 25  2  0
 25 26  1  0
 26 27  2  0
 27 28  1  0
 28 29  2  0
 11  3  1  0
 18 13  1  0
 25 21  1  0
  9  5  1  0
 29 24  1  0
  4 30  1  0
  4 31  1  0
  5 32  1  1
  6 33  1  0
  6 34  1  0
  7 35  1  0
  7 36  1  0
  8 37  1  0
  8 38  1  0
 10 39  1  0
 10 40  1  0
 11 41  1  1
 12 42  1  0
 12 43  1  0
 14 44  1  0
 15 45  1  0
 16 46  1  0
 17 47  1  0
 18 48  1  0
 19 49  1  0
 19 50  1  0
 20 51  1  0
 20 52  1  0
 22 53  1  0
 23 54  1  0
 26 55  1  0
 27 56  1  0
 28 57  1  0
 29 58  1  0
M  END
>  <Ligand ID>  (1) 
LIG0001309

>  <Ligand>  (1) 
CHEMBL387169

>  <SMILES>  (1) 
O=C(N1C[C@@H]2CCCN2C[C@@H]1Cc1ccccc1)CCc1c[nH]c2c1cccc2

>  <CID>  (1) 
44418420.0

>  <ChEMBL ID>  (1) 
nan

>  <InChiKey>  (1) 
KPKOJXZVOJTTBP-VXKWHMMOSA-N

>  <InChi>  (1) 
InChI=1S/C25H29N3O/c29-25(13-12-20-16-26-24-11-5-4-10-23(20)24)28-18-21-9-6-14-27(21)17-22(28)15-19-7-2-1-3-8-19/h1-5,7-8,10-11,16,21-22,26H,6,9,12-15,17-18H2/t21-,22-/m0/s1

>  <IUPAC Name>  (1) 
1-[(3S,8aS)-3-benzyl-3,4,6,7,8,8a-hexahydro-1H-pyrrolo[1,2-a]pyrazin-2-yl]-3-(1H-indol-3-yl)propan-1-one

$$$$
