
     RDKit          3D

 31 31  0  0  0  0  0  0  0  0999 V2000
   -4.2364   -0.1620    0.2245 C   0  0  0  0  0  0  0  0  0  0  0  0
   -3.1953   -0.1719   -0.6245 C   0  0  0  0  0  0  0  0  0  0  0  0
   -2.2286    0.9553   -0.5595 C   0  0  0  0  0  0  0  0  0  0  0  0
   -0.9286    0.4186   -0.2390 N   0  0  0  0  0  0  0  0  0  0  0  0
   -0.8870   -0.1028    1.0846 C   0  0  0  0  0  0  0  0  0  0  0  0
    0.2905    0.2670    1.9098 C   0  0  0  0  0  0  0  0  0  0  0  0
    1.5180    0.1968    1.0486 C   0  0  0  0  0  0  0  0  0  0  0  0
    1.7791   -0.4046   -0.1535 C   0  0  0  0  0  0  0  0  0  0  0  0
    0.7801   -1.2053   -0.9383 C   0  0  0  0  0  0  0  0  0  0  0  0
   -0.4563   -0.4158   -1.2806 C   0  0  0  0  0  0  0  0  0  0  0  0
    3.0187   -0.2169   -0.5695 N   0  0  0  0  0  0  0  0  0  0  0  0
    3.8882    0.3546   -0.0977 C   0  0  0  0  0  0  0  0  0  0  0  0
    3.0490    0.9835    1.4989 S   0  0  0  0  0  0  0  0  0  0  0  0
    5.2590    0.7061   -0.3082 N   0  0  0  0  0  0  0  0  0  0  0  0
    0.6845    0.0000    0.0000 Cl  0  0  0  0  0  0  0  0  0  0  0  0
   -4.3886    0.6364    0.9470 H   0  0  0  0  0  0  0  0  0  0  0  0
   -4.9813   -0.9518    0.2373 H   0  0  0  0  0  0  0  0  0  0  0  0
   -3.1273   -1.0049   -1.3019 H   0  0  0  0  0  0  0  0  0  0  0  0
   -2.2513    1.4151   -1.5788 H   0  0  0  0  0  0  0  0  0  0  0  0
   -2.5577    1.7159    0.1948 H   0  0  0  0  0  0  0  0  0  0  0  0
   -1.7957    0.3046    1.6217 H   0  0  0  0  0  0  0  0  0  0  0  0
   -1.0331   -1.2191    1.0306 H   0  0  0  0  0  0  0  0  0  0  0  0
    0.2325    1.2770    2.3535 H   0  0  0  0  0  0  0  0  0  0  0  0
    0.3718   -0.4507    2.7498 H   0  0  0  0  0  0  0  0  0  0  0  0
    1.1803   -1.5818   -1.9003 H   0  0  0  0  0  0  0  0  0  0  0  0
    0.4983   -2.1150   -0.3345 H   0  0  0  0  0  0  0  0  0  0  0  0
   -1.1624   -1.1198   -1.7266 H   0  0  0  0  0  0  0  0  0  0  0  0
   -0.1447    0.2608   -2.1305 H   0  0  0  0  0  0  0  0  0  0  0  0
    5.9442   -0.0781   -0.4989 H   0  0  0  0  0  0  0  0  0  0  0  0
    5.5645    1.7088   -0.2730 H   0  0  0  0  0  0  0  0  0  0  0  0
   -0.6845    0.0000    0.0000 H   0  0  0  0  0  0  0  0  0  0  0  0
  1  2  2  0
  2  3  1  0
  3  4  1  0
  4  5  1  0
  5  6  1  0
  6  7  1  0
  7  8  2  0
  8  9  1  0
  9 10  1  0
  8 11  1  0
 11 12  2  0
 12 13  1  0
 12 14  1  0
 10  4  1  0
 13  7  1  0
  1 16  1  0
  1 17  1  0
  2 18  1  0
  3 19  1  0
  3 20  1  0
  5 21  1  0
  5 22  1  0
  6 23  1  0
  6 24  1  0
  9 25  1  0
  9 26  1  0
 10 27  1  0
 10 28  1  0
 14 29  1  0
 14 30  1  0
 15 31  1  0
M  END
>  <Ligand ID>  (1) 
LIG0005635

>  <Ligand>  (1) 
talipexole hydrochloride

>  <SMILES>  (1) 
C=CCN1CCc2c(CC1)nc(s2)N.Cl

>  <CID>  (1) 
6852379.0

>  <ChEMBL ID>  (1) 
nan

>  <InChiKey>  (1) 
AFOGLDDNZFXNPQ-UHFFFAOYSA-N

>  <InChi>  (1) 
InChI=1S/C10H15N3S.ClH/c1-2-5-13-6-3-8-9(4-7-13)14-10(11)12-8;/h2H,1,3-7H2,(H2,11,12);1H

>  <IUPAC Name>  (1) 
6-prop-2-enyl-4,5,7,8-tetrahydro-[1,3]thiazolo[4,5-d]azepin-2-amine;hydrochloride

$$$$
