
     RDKit          3D

133135  0  0  0  0  0  0  0  0999 V2000
    9.2494   -2.1755    0.4224 N   0  0  0  0  0  0  0  0  0  0  0  0
    7.9954   -2.0560    1.1151 C   0  0  0  0  0  0  0  0  0  0  0  0
    8.0862   -1.1636    2.2893 C   0  0  0  0  0  0  0  0  0  0  0  0
    8.5031    0.2922    1.9456 C   0  0  1  0  0  0  0  0  0  0  0  0
    9.8339    0.2633    1.3307 C   0  0  0  0  0  0  0  0  0  0  0  0
   10.8385    0.0352    2.0296 O   0  0  0  0  0  0  0  0  0  0  0  0
   10.0689    0.4799   -0.0717 N   0  0  0  0  0  0  0  0  0  0  0  0
   11.4307    0.4400   -0.6268 C   0  0  0  0  0  0  0  0  0  0  0  0
   11.3351    0.6662   -2.0882 C   0  0  0  0  0  0  0  0  0  0  0  0
   10.1535    0.8354   -2.5468 O   0  0  0  0  0  0  0  0  0  0  0  0
   12.4399    0.7021   -2.9710 N   0  0  0  0  0  0  0  0  0  0  0  0
    7.5030    0.8952    1.1343 N   0  0  0  0  0  0  0  0  0  0  0  0
    6.0972    1.0305    1.4176 C   0  0  0  0  0  0  0  0  0  0  0  0
    5.6273    0.5677    2.4696 O   0  0  0  0  0  0  0  0  0  0  0  0
    5.3348    1.7414    0.3700 C   0  0  2  0  0  0  0  0  0  0  0  0
    5.2868    3.2476    0.6946 C   0  0  0  0  0  0  0  0  0  0  0  0
    4.2294    3.7282   -0.2723 C   0  0  0  0  0  0  0  0  0  0  0  0
    3.4914    2.5060   -0.7149 C   0  0  0  0  0  0  0  0  0  0  0  0
    3.9506    1.4290    0.2083 N   0  0  0  0  0  0  0  0  0  0  0  0
    3.1295    0.3684    0.6713 C   0  0  0  0  0  0  0  0  0  0  0  0
    3.4909   -0.5304    1.4600 O   0  0  0  0  0  0  0  0  0  0  0  0
    1.7258    0.3183    0.1614 C   0  0  2  0  0  0  0  0  0  0  0  0
    0.7573    1.1979    0.9089 C   0  0  0  0  0  0  0  0  0  0  0  0
   -0.8250    1.0117   -0.0361 S   0  0  0  0  0  0  0  0  0  0  0  0
   -0.6372    1.9438   -1.9160 S   0  0  0  0  0  0  0  0  0  0  0  0
   -1.2021    3.6296   -1.9030 C   0  0  0  0  0  0  0  0  0  0  0  0
   -2.5494    3.8830   -2.3264 C   0  0  2  0  0  0  0  0  0  0  0  0
   -2.7734    5.3927   -2.3677 N   0  0  0  0  0  0  0  0  0  0  0  0
   -3.7726    3.3886   -1.7565 C   0  0  0  0  0  0  0  0  0  0  0  0
   -4.8444    3.8437   -2.2782 O   0  0  0  0  0  0  0  0  0  0  0  0
   -4.0281    2.4759   -0.7138 N   0  0  0  0  0  0  0  0  0  0  0  0
   -5.2564    2.0147   -0.1502 C   0  0  1  0  0  0  0  0  0  0  0  0
   -6.5599    2.5944   -0.5490 C   0  0  0  0  0  0  0  0  0  0  0  0
   -6.8467    3.9963   -0.2278 C   0  0  0  0  0  0  0  0  0  0  0  0
   -8.2481    4.3483   -0.7482 C   0  0  0  0  0  0  0  0  0  0  0  0
   -9.3104    3.5475   -0.0795 C   0  0  0  0  0  0  0  0  0  0  0  0
   -9.3524    3.8040    1.4216 C   0  0  0  0  0  0  0  0  0  0  0  0
   -7.9954    3.3849    1.9444 C   0  0  0  0  0  0  0  0  0  0  0  0
   -6.9598    4.2333    1.2890 C   0  0  0  0  0  0  0  0  0  0  0  0
   -5.3556    0.5401    0.0051 C   0  0  0  0  0  0  0  0  0  0  0  0
   -6.3182   -0.0616    0.5039 O   0  0  0  0  0  0  0  0  0  0  0  0
   -4.2841   -0.2712   -0.4398 N   0  0  0  0  0  0  0  0  0  0  0  0
   -4.2743   -1.7528   -0.3308 C   0  0  2  0  0  0  0  0  0  0  0  0
   -3.2966   -2.1482    0.6847 C   0  0  0  0  0  0  0  0  0  0  0  0
   -2.7786   -1.2441    1.3830 O   0  0  0  0  0  0  0  0  0  0  0  0
   -2.8403   -3.4447    0.9936 N   0  0  0  0  0  0  0  0  0  0  0  0
   -1.8532   -3.7340    2.0538 C   0  0  2  0  0  0  0  0  0  0  0  0
   -0.4921   -3.8011    1.4291 C   0  0  0  0  0  0  0  0  0  0  0  0
    0.5371   -4.1859    1.9853 O   0  0  0  0  0  0  0  0  0  0  0  0
   -0.2922   -3.3869    0.0571 N   0  0  0  0  0  0  0  0  0  0  0  0
    0.9551   -3.4411   -0.6477 C   0  0  2  0  0  0  0  0  0  0  0  0
    1.5476   -2.0702   -0.6647 C   0  0  0  0  0  0  0  0  0  0  0  0
    2.3896   -1.6985   -1.5009 O   0  0  0  0  0  0  0  0  0  0  0  0
    1.2015   -1.0668    0.2990 N   0  0  0  0  0  0  0  0  0  0  0  0
    0.9257   -4.1071   -1.9762 C   0  0  0  0  0  0  0  0  0  0  0  0
    0.0228   -3.4910   -2.9709 C   0  0  0  0  0  0  0  0  0  0  0  0
   -0.6667   -2.4694   -2.7180 O   0  0  0  0  0  0  0  0  0  0  0  0
   -0.0440   -4.1046   -4.2547 N   0  0  0  0  0  0  0  0  0  0  0  0
   -2.2299   -4.9612    2.7741 C   0  0  0  0  0  0  0  0  0  0  0  0
   -1.3536   -5.3549    3.8673 C   0  0  0  0  0  0  0  0  0  0  0  0
   -0.3474   -4.7353    4.2876 O   0  0  0  0  0  0  0  0  0  0  0  0
   -1.6563   -6.5872    4.5568 N   0  0  0  0  0  0  0  0  0  0  0  0
   -4.1629   -2.3394   -1.6822 C   0  0  2  0  0  0  0  0  0  0  0  0
   -5.3284   -1.9007   -2.5790 C   0  0  0  0  0  0  0  0  0  0  0  0
   -6.6091   -2.3700   -1.9614 C   0  0  0  0  0  0  0  0  0  0  0  0
   -4.0347   -3.7976   -1.8345 C   0  0  0  0  0  0  0  0  0  0  0  0
    9.1902   -2.9986   -0.2411 H   0  0  0  0  0  0  0  0  0  0  0  0
    9.9950   -2.4304    1.1267 H   0  0  0  0  0  0  0  0  0  0  0  0
    7.1397   -1.8363    0.4408 H   0  0  0  0  0  0  0  0  0  0  0  0
    7.7904   -3.1072    1.5151 H   0  0  0  0  0  0  0  0  0  0  0  0
    7.1635   -1.0829    2.8730 H   0  0  0  0  0  0  0  0  0  0  0  0
    8.8888   -1.5057    3.0054 H   0  0  0  0  0  0  0  0  0  0  0  0
    8.5166    0.7522    2.9486 H   0  0  0  0  0  0  0  0  0  0  0  0
    9.3070    0.6583   -0.7534 H   0  0  0  0  0  0  0  0  0  0  0  0
   11.9791    1.3235   -0.2004 H   0  0  0  0  0  0  0  0  0  0  0  0
   11.9236   -0.4991   -0.3739 H   0  0  0  0  0  0  0  0  0  0  0  0
   12.6072    0.0313   -3.7500 H   0  0  0  0  0  0  0  0  0  0  0  0
   13.1599    1.4654   -2.8492 H   0  0  0  0  0  0  0  0  0  0  0  0
    7.8366    1.3192    0.2190 H   0  0  0  0  0  0  0  0  0  0  0  0
    5.8591    1.6761   -0.6126 H   0  0  0  0  0  0  0  0  0  0  0  0
    6.2673    3.6847    0.5182 H   0  0  0  0  0  0  0  0  0  0  0  0
    4.9014    3.4433    1.7032 H   0  0  0  0  0  0  0  0  0  0  0  0
    3.5616    4.4752    0.2168 H   0  0  0  0  0  0  0  0  0  0  0  0
    4.6907    4.2894   -1.1206 H   0  0  0  0  0  0  0  0  0  0  0  0
    2.4173    2.6452   -0.6374 H   0  0  0  0  0  0  0  0  0  0  0  0
    3.7991    2.2102   -1.7582 H   0  0  0  0  0  0  0  0  0  0  0  0
    1.6938    0.5390   -0.9130 H   0  0  0  0  0  0  0  0  0  0  0  0
    1.0312    2.2169    1.0965 H   0  0  0  0  0  0  0  0  0  0  0  0
    0.5948    0.6678    1.9025 H   0  0  0  0  0  0  0  0  0  0  0  0
   -0.4228    4.2439   -2.4655 H   0  0  0  0  0  0  0  0  0  0  0  0
   -1.1268    4.0486   -0.8130 H   0  0  0  0  0  0  0  0  0  0  0  0
   -2.6626    3.6813   -3.4776 H   0  0  0  0  0  0  0  0  0  0  0  0
   -3.2747    5.6412   -1.4822 H   0  0  0  0  0  0  0  0  0  0  0  0
   -1.8204    5.8279   -2.3213 H   0  0  0  0  0  0  0  0  0  0  0  0
   -3.1720    2.1018   -0.2836 H   0  0  0  0  0  0  0  0  0  0  0  0
   -5.1749    2.4546    0.9389 H   0  0  0  0  0  0  0  0  0  0  0  0
   -6.7835    2.4424   -1.6424 H   0  0  0  0  0  0  0  0  0  0  0  0
   -7.3432    1.9656   -0.0505 H   0  0  0  0  0  0  0  0  0  0  0  0
   -6.1993    4.7972   -0.5659 H   0  0  0  0  0  0  0  0  0  0  0  0
   -8.4289    5.4244   -0.4689 H   0  0  0  0  0  0  0  0  0  0  0  0
   -8.3471    4.2813   -1.8262 H   0  0  0  0  0  0  0  0  0  0  0  0
   -9.2908    2.4776   -0.2857 H   0  0  0  0  0  0  0  0  0  0  0  0
  -10.2896    3.9328   -0.4556 H   0  0  0  0  0  0  0  0  0  0  0  0
   -9.4225    4.9068    1.5466 H   0  0  0  0  0  0  0  0  0  0  0  0
  -10.1992    3.2726    1.8443 H   0  0  0  0  0  0  0  0  0  0  0  0
   -7.8281    2.2965    1.8765 H   0  0  0  0  0  0  0  0  0  0  0  0
   -7.9942    3.6526    3.0292 H   0  0  0  0  0  0  0  0  0  0  0  0
   -5.9726    4.2349    1.7548 H   0  0  0  0  0  0  0  0  0  0  0  0
   -7.3275    5.2935    1.3658 H   0  0  0  0  0  0  0  0  0  0  0  0
   -3.4928    0.1890   -0.8618 H   0  0  0  0  0  0  0  0  0  0  0  0
   -5.2660   -1.9936    0.0945 H   0  0  0  0  0  0  0  0  0  0  0  0
   -3.1988   -4.2300    0.4875 H   0  0  0  0  0  0  0  0  0  0  0  0
   -1.8366   -2.8576    2.7140 H   0  0  0  0  0  0  0  0  0  0  0  0
   -1.1384   -3.0371   -0.3991 H   0  0  0  0  0  0  0  0  0  0  0  0
    1.7267   -4.0322   -0.0382 H   0  0  0  0  0  0  0  0  0  0  0  0
    0.6021   -1.3756    1.0556 H   0  0  0  0  0  0  0  0  0  0  0  0
    1.9678   -4.1598   -2.4089 H   0  0  0  0  0  0  0  0  0  0  0  0
    0.6489   -5.1980   -1.8817 H   0  0  0  0  0  0  0  0  0  0  0  0
   -0.5236   -5.0139   -4.4045 H   0  0  0  0  0  0  0  0  0  0  0  0
    0.3833   -3.6845   -5.1208 H   0  0  0  0  0  0  0  0  0  0  0  0
   -2.2325   -5.8027    2.0069 H   0  0  0  0  0  0  0  0  0  0  0  0
   -3.3048   -4.8948    3.0670 H   0  0  0  0  0  0  0  0  0  0  0  0
   -0.9298   -7.2927    4.7485 H   0  0  0  0  0  0  0  0  0  0  0  0
   -2.6355   -6.7112    4.8351 H   0  0  0  0  0  0  0  0  0  0  0  0
   -3.2629   -1.8716   -2.1651 H   0  0  0  0  0  0  0  0  0  0  0  0
   -5.1311   -2.2876   -3.5886 H   0  0  0  0  0  0  0  0  0  0  0  0
   -5.3367   -0.7848   -2.5461 H   0  0  0  0  0  0  0  0  0  0  0  0
   -6.4918   -3.0499   -1.0923 H   0  0  0  0  0  0  0  0  0  0  0  0
   -7.2537   -1.5193   -1.5982 H   0  0  0  0  0  0  0  0  0  0  0  0
   -7.2062   -2.9974   -2.6960 H   0  0  0  0  0  0  0  0  0  0  0  0
   -4.3625   -4.0299   -2.9079 H   0  0  0  0  0  0  0  0  0  0  0  0
   -2.9811   -4.1939   -1.8462 H   0  0  0  0  0  0  0  0  0  0  0  0
   -4.7355   -4.4115   -1.2460 H   0  0  0  0  0  0  0  0  0  0  0  0
  1  2  1  0
  2  3  1  0
  3  4  1  0
  4  5  1  0
  5  6  2  0
  5  7  1  0
  7  8  1  0
  8  9  1  0
  9 10  2  0
  9 11  1  0
  4 12  1  0
 12 13  1  0
 13 14  2  0
 13 15  1  0
 15 16  1  0
 16 17  1  0
 17 18  1  0
 18 19  1  0
 19 20  1  0
 20 21  2  0
 20 22  1  0
 22 23  1  0
 23 24  1  0
 24 25  1  0
 25 26  1  0
 26 27  1  0
 27 28  1  0
 27 29  1  0
 29 30  2  0
 29 31  1  0
 31 32  1  0
 32 33  1  0
 33 34  1  0
 34 35  1  0
 35 36  1  0
 36 37  1  0
 37 38  1  0
 38 39  1  0
 32 40  1  0
 40 41  2  0
 40 42  1  0
 42 43  1  0
 43 44  1  0
 44 45  2  0
 44 46  1  0
 46 47  1  0
 47 48  1  0
 48 49  2  0
 48 50  1  0
 50 51  1  0
 51 52  1  0
 52 53  2  0
 52 54  1  0
 51 55  1  0
 55 56  1  0
 56 57  2  0
 56 58  1  0
 47 59  1  0
 59 60  1  0
 60 61  2  0
 60 62  1  0
 43 63  1  0
 63 64  1  0
 64 65  1  0
 63 66  1  0
 19 15  1  0
 54 22  1  0
 39 34  1  0
  1 67  1  0
  1 68  1  0
  2 69  1  0
  2 70  1  0
  3 71  1  0
  3 72  1  0
  4 73  1  1
  7 74  1  0
  8 75  1  0
  8 76  1  0
 11 77  1  0
 11 78  1  0
 12 79  1  0
 15 80  1  6
 16 81  1  0
 16 82  1  0
 17 83  1  0
 17 84  1  0
 18 85  1  0
 18 86  1  0
 22 87  1  6
 23 88  1  0
 23 89  1  0
 26 90  1  0
 26 91  1  0
 27 92  1  6
 28 93  1  0
 28 94  1  0
 31 95  1  0
 32 96  1  1
 33 97  1  0
 33 98  1  0
 34 99  1  0
 35100  1  0
 35101  1  0
 36102  1  0
 36103  1  0
 37104  1  0
 37105  1  0
 38106  1  0
 38107  1  0
 39108  1  0
 39109  1  0
 42110  1  0
 43111  1  1
 46112  1  0
 47113  1  1
 50114  1  0
 51115  1  1
 54116  1  0
 55117  1  0
 55118  1  0
 58119  1  0
 58120  1  0
 59121  1  0
 59122  1  0
 62123  1  0
 62124  1  0
 63125  1  6
 64126  1  0
 64127  1  0
 65128  1  0
 65129  1  0
 65130  1  0
 66131  1  0
 66132  1  0
 66133  1  0
M  END
>  <Ligand ID>  (1) 
LIG0001624

>  <Ligand>  (1) 
CHEMBL1817772

>  <SMILES>  (1) 
NCC[C@@H](C(=O)NCC(=O)N)NC(=O)[C@@H]1CCCN1C(=O)[C@@H]1CSSC[C@H](N)C(=O)N[C@@H](CC2CCCCC2)C(=O)N[C@H](C(=O)N[C@H](C(=O)N[C@H](C(=O)N1)CC(=O)N)CC(=O)N)[C@H](CC)C

>  <CID>  (1) 
53362967.0

>  <ChEMBL ID>  (1) 
nan

>  <InChiKey>  (1) 
ZTONVUGRIFCCJW-LWHYKBHJSA-N

>  <InChi>  (1) 
InChI=1S/C40H67N13O11S2/c1-3-20(2)32-39(63)50-26(16-30(44)55)35(59)49-25(15-29(43)54)36(60)51-27(19-66-65-18-22(42)33(57)48-24(37(61)52-32)14-21-8-5-4-6-9-21)40(64)53-13-7-10-28(53)38(62)47-23(11-12-41)34(58)46-17-31(45)56/h20-28,32H,3-19,41-42H2,1-2H3,(H2,43,54)(H2,44,55)(H2,45,56)(H,46,58)(H,47,62)(H,48,57)(H,49,59)(H,50,63)(H,51,60)(H,52,61)/t20-,22-,23-,24-,25-,26-,27-,28-,32-/m0/s1

>  <IUPAC Name>  (1) 
(2S)-N-[(2S)-4-amino-1-[(2-amino-2-oxoethyl)amino]-1-oxobutan-2-yl]-1-[(4R,7S,10S,13S,16S,19R)-19-amino-7,10-bis(2-amino-2-oxoethyl)-13-[(2S)-butan-2-yl]-16-(cyclohexylmethyl)-6,9,12,15,18-pentaoxo-1,2-dithia-5,8,11,14,17-pentazacycloicosane-4-carbonyl]pyrrolidine-2-carboxamide

$$$$
