
     RDKit          3D

 72 73  0  0  0  0  0  0  0  0999 V2000
   -3.1604   -1.1956   -1.2036 O   0  0  0  0  0  0  0  0  0  0  0  0
   -2.8101   -2.3856   -1.1271 C   0  0  0  0  0  0  0  0  0  0  0  0
   -3.7865   -3.3424   -0.7763 N   0  0  0  0  0  0  0  0  0  0  0  0
   -5.1484   -2.9164   -0.5192 C   0  0  0  0  0  0  0  0  0  0  0  0
   -5.6319   -1.8421   -0.5498 N   0  0  0  0  0  0  0  0  0  0  0  0
   -5.7870   -0.5247   -0.6880 C   0  0  0  0  0  0  0  0  0  0  0  0
   -7.2240   -0.0158   -0.4081 C   0  0  0  0  0  0  0  0  0  0  0  0
   -7.2538    1.4707   -0.5992 C   0  0  0  0  0  0  0  0  0  0  0  0
   -8.6348    1.9421   -0.3277 C   0  0  0  0  0  0  0  0  0  0  0  0
   -9.7661    1.2659    0.0364 C   0  0  0  0  0  0  0  0  0  0  0  0
  -10.8323    2.0318    0.1924 N   0  0  0  0  0  0  0  0  0  0  0  0
  -10.9609    3.1650    0.0724 C   0  0  0  0  0  0  0  0  0  0  0  0
   -9.1754    3.6712   -0.4274 S   0  0  0  0  0  0  0  0  0  0  0  0
  -11.9272    4.2214    0.1655 N   0  0  0  0  0  0  0  0  0  0  0  0
   -6.0062   -4.0652   -0.1701 N   0  0  0  0  0  0  0  0  0  0  0  0
   -1.4336   -2.8552   -1.3817 C   0  0  0  0  0  0  0  0  0  0  0  0
   -0.4916   -1.7308   -1.6789 C   0  0  0  0  0  0  0  0  0  0  0  0
   -0.3360   -0.7307   -0.5639 C   0  0  0  0  0  0  0  0  0  0  0  0
    0.6485    0.3100   -1.0560 C   0  0  0  0  0  0  0  0  0  0  0  0
    0.9074    1.3814   -0.0476 C   0  0  0  0  0  0  0  0  0  0  0  0
    1.4710    0.9191    1.2514 C   0  0  0  0  0  0  0  0  0  0  0  0
    2.7725    0.2465    1.0988 C   0  0  0  0  0  0  0  0  0  0  0  0
    3.3746    0.0789    0.0113 O   0  0  0  0  0  0  0  0  0  0  0  0
    3.4127   -0.2610    2.2748 N   0  0  0  0  0  0  0  0  0  0  0  0
    4.6771   -0.9240    2.1946 C   0  0  0  0  0  0  0  0  0  0  0  0
    5.2111   -1.0450    1.0344 N   0  0  0  0  0  0  0  0  0  0  0  0
    6.4734   -1.6974    0.8875 C   0  0  0  0  0  0  0  0  0  0  0  0
    7.5929   -0.6984    0.6881 C   0  0  0  0  0  0  0  0  0  0  0  0
    7.3628    0.1346   -0.5497 C   0  0  0  0  0  0  0  0  0  0  0  0
    8.4904    1.1068   -0.7085 C   0  0  0  0  0  0  0  0  0  0  0  0
    8.7586    2.0471   -1.6196 C   0  0  0  0  0  0  0  0  0  0  0  0
    9.8730    2.7217   -1.4240 N   0  0  0  0  0  0  0  0  0  0  0  0
   10.6396    2.6370   -0.6136 C   0  0  0  0  0  0  0  0  0  0  0  0
    9.8933    1.2170    0.4480 S   0  0  0  0  0  0  0  0  0  0  0  0
   11.9278    3.1674   -0.0804 N   0  0  0  0  0  0  0  0  0  0  0  0
    5.3084   -1.4271    3.3723 N   0  0  0  0  0  0  0  0  0  0  0  0
   -3.5021   -4.3433   -0.7097 H   0  0  0  0  0  0  0  0  0  0  0  0
   -5.5233   -0.0543   -1.6949 H   0  0  0  0  0  0  0  0  0  0  0  0
   -5.1495    0.1125    0.0142 H   0  0  0  0  0  0  0  0  0  0  0  0
   -7.8983   -0.5005   -1.1351 H   0  0  0  0  0  0  0  0  0  0  0  0
   -7.4763   -0.3676    0.5989 H   0  0  0  0  0  0  0  0  0  0  0  0
   -6.5550    2.0124    0.0536 H   0  0  0  0  0  0  0  0  0  0  0  0
   -6.9514    1.6594   -1.6519 H   0  0  0  0  0  0  0  0  0  0  0  0
   -9.7720    0.1796    0.1827 H   0  0  0  0  0  0  0  0  0  0  0  0
  -12.4501    4.4452   -0.7207 H   0  0  0  0  0  0  0  0  0  0  0  0
  -12.1077    4.7371    1.0400 H   0  0  0  0  0  0  0  0  0  0  0  0
   -5.9742   -4.4442    0.8017 H   0  0  0  0  0  0  0  0  0  0  0  0
   -6.6273   -4.4703   -0.9130 H   0  0  0  0  0  0  0  0  0  0  0  0
   -1.0684   -3.3281   -0.4283 H   0  0  0  0  0  0  0  0  0  0  0  0
   -1.4221   -3.6319   -2.1852 H   0  0  0  0  0  0  0  0  0  0  0  0
    0.5104   -2.1256   -1.9361 H   0  0  0  0  0  0  0  0  0  0  0  0
   -0.8102   -1.1580   -2.5963 H   0  0  0  0  0  0  0  0  0  0  0  0
    0.1176   -1.2998    0.2889 H   0  0  0  0  0  0  0  0  0  0  0  0
   -1.2892   -0.2638   -0.2986 H   0  0  0  0  0  0  0  0  0  0  0  0
    0.1800    0.7465   -1.9721 H   0  0  0  0  0  0  0  0  0  0  0  0
    1.5575   -0.2166   -1.3967 H   0  0  0  0  0  0  0  0  0  0  0  0
    1.6413    2.1016   -0.5130 H   0  0  0  0  0  0  0  0  0  0  0  0
   -0.0122    1.9890    0.0763 H   0  0  0  0  0  0  0  0  0  0  0  0
    0.7581    0.3531    1.8740 H   0  0  0  0  0  0  0  0  0  0  0  0
    1.6863    1.8541    1.8457 H   0  0  0  0  0  0  0  0  0  0  0  0
    2.9447   -0.1432    3.2083 H   0  0  0  0  0  0  0  0  0  0  0  0
    6.6606   -2.3727    1.7336 H   0  0  0  0  0  0  0  0  0  0  0  0
    6.4751   -2.3301   -0.0309 H   0  0  0  0  0  0  0  0  0  0  0  0
    8.5806   -1.1665    0.6656 H   0  0  0  0  0  0  0  0  0  0  0  0
    7.5251    0.0072    1.5499 H   0  0  0  0  0  0  0  0  0  0  0  0
    7.2272   -0.4744   -1.4625 H   0  0  0  0  0  0  0  0  0  0  0  0
    6.4468    0.7607   -0.4190 H   0  0  0  0  0  0  0  0  0  0  0  0
    8.0953    2.2535   -2.4848 H   0  0  0  0  0  0  0  0  0  0  0  0
   11.8835    4.0365    0.4932 H   0  0  0  0  0  0  0  0  0  0  0  0
   12.8011    2.6469   -0.3059 H   0  0  0  0  0  0  0  0  0  0  0  0
    5.4691   -2.4659    3.4006 H   0  0  0  0  0  0  0  0  0  0  0  0
    5.6001   -0.8167    4.1678 H   0  0  0  0  0  0  0  0  0  0  0  0
  1  2  2  0
  2  3  1  0
  3  4  1  0
  4  5  2  3
  5  6  1  0
  6  7  1  0
  7  8  1  0
  8  9  1  0
  9 10  2  0
 10 11  1  0
 11 12  2  0
 12 13  1  0
 12 14  1  0
  4 15  1  0
  2 16  1  0
 16 17  1  0
 17 18  1  0
 18 19  1  0
 19 20  1  0
 20 21  1  0
 21 22  1  0
 22 23  2  0
 22 24  1  0
 24 25  1  0
 25 26  2  3
 26 27  1  0
 27 28  1  0
 28 29  1  0
 29 30  1  0
 30 31  2  0
 31 32  1  0
 32 33  2  0
 33 34  1  0
 33 35  1  0
 25 36  1  0
 13  9  1  0
 34 30  1  0
  3 37  1  0
  6 38  1  0
  6 39  1  0
  7 40  1  0
  7 41  1  0
  8 42  1  0
  8 43  1  0
 10 44  1  0
 14 45  1  0
 14 46  1  0
 15 47  1  0
 15 48  1  0
 16 49  1  0
 16 50  1  0
 17 51  1  0
 17 52  1  0
 18 53  1  0
 18 54  1  0
 19 55  1  0
 19 56  1  0
 20 57  1  0
 20 58  1  0
 21 59  1  0
 21 60  1  0
 24 61  1  0
 27 62  1  0
 27 63  1  0
 28 64  1  0
 28 65  1  0
 29 66  1  0
 29 67  1  0
 31 68  1  0
 35 69  1  0
 35 70  1  0
 36 71  1  0
 36 72  1  0
M  END
>  <Ligand ID>  (1) 
LIG0005763

>  <Ligand>  (1) 
CHEMBL2165636

>  <SMILES>  (1) 
O=C(NC(=NCCCc1cnc(s1)N)N)CCCCCCC(=O)NC(=NCCCc1cnc(s1)N)N

>  <CID>  (1) 
56954129.0

>  <ChEMBL ID>  (1) 
nan

>  <InChiKey>  (1) 
RKSXQJRAAANUNM-UHFFFAOYSA-N

>  <InChi>  (1) 
InChI=1S/C22H36N10O2S2/c23-19(27-11-5-7-15-13-29-21(25)35-15)31-17(33)9-3-1-2-4-10-18(34)32-20(24)28-12-6-8-16-14-30-22(26)36-16/h13-14H,1-12H2,(H2,25,29)(H2,26,30)(H3,23,27,31,33)(H3,24,28,32,34)

>  <IUPAC Name>  (1) 
N,N'-bis[N'-[3-(2-amino-1,3-thiazol-5-yl)propyl]carbamimidoyl]octanediamide

$$$$
