
     RDKit          3D

 51 53  0  0  0  0  0  0  0  0999 V2000
   -5.9195    4.0762    0.5712 C   0  0  0  0  0  0  0  0  0  0  0  0
   -4.7965    3.4000    0.0812 O   0  0  0  0  0  0  0  0  0  0  0  0
   -4.6965    2.0353   -0.1172 C   0  0  0  0  0  0  0  0  0  0  0  0
   -5.7342    1.1543    0.1569 C   0  0  0  0  0  0  0  0  0  0  0  0
   -5.5321   -0.1956   -0.0766 C   0  0  0  0  0  0  0  0  0  0  0  0
   -4.3199   -0.6661   -0.5746 C   0  0  0  0  0  0  0  0  0  0  0  0
   -3.2704    0.2176   -0.8527 C   0  0  0  0  0  0  0  0  0  0  0  0
   -3.4907    1.5566   -0.6138 C   0  0  0  0  0  0  0  0  0  0  0  0
   -2.0303   -0.3564   -1.3751 C   0  0  0  0  0  0  0  0  0  0  0  0
   -1.0577   -0.7909   -0.3613 C   0  0  0  0  0  0  0  0  0  0  0  0
   -0.9113   -2.1518   -0.0756 C   0  0  0  0  0  0  0  0  0  0  0  0
   -0.0126   -2.6042    0.8695 C   0  0  0  0  0  0  0  0  0  0  0  0
    0.1085   -4.0719    1.1406 C   0  0  0  0  0  0  0  0  0  0  0  0
    1.1441   -4.7145    0.2490 C   0  0  0  0  0  0  0  0  0  0  0  0
    0.7198   -1.6872    1.5081 N   0  0  0  0  0  0  0  0  0  0  0  0
    0.6347   -0.3832    1.2894 N   0  0  0  0  0  0  0  0  0  0  0  0
   -0.2477    0.0584    0.3616 C   0  0  0  0  0  0  0  0  0  0  0  0
   -0.3230    1.2965    0.1590 O   0  0  0  0  0  0  0  0  0  0  0  0
    1.4417    0.5886    1.9964 C   0  0  0  0  0  0  0  0  0  0  0  0
    2.7326    0.8741    1.3102 C   0  0  0  0  0  0  0  0  0  0  0  0
    3.4879    1.7281    1.8899 O   0  0  0  0  0  0  0  0  0  0  0  0
    3.1148    0.2473    0.0910 N   0  0  0  0  0  0  0  0  0  0  0  0
    4.3785    0.6145   -0.4551 C   0  0  0  0  0  0  0  0  0  0  0  0
    5.5458   -0.0563   -0.1367 C   0  0  0  0  0  0  0  0  0  0  0  0
    6.7210    0.3868   -0.7267 C   0  0  0  0  0  0  0  0  0  0  0  0
    6.7727    1.4447   -1.5981 C   0  0  0  0  0  0  0  0  0  0  0  0
    5.5856    2.0939   -1.8949 C   0  0  0  0  0  0  0  0  0  0  0  0
    4.3939    1.6850   -1.3295 C   0  0  0  0  0  0  0  0  0  0  0  0
    8.5351    2.1293   -2.4984 I   0  0  0  0  0  0  0  0  0  0  0  0
   -6.6514    4.3645   -0.2150 H   0  0  0  0  0  0  0  0  0  0  0  0
   -6.4848    3.4604    1.3025 H   0  0  0  0  0  0  0  0  0  0  0  0
   -5.6140    4.9928    1.1560 H   0  0  0  0  0  0  0  0  0  0  0  0
   -6.6654    1.5553    0.5444 H   0  0  0  0  0  0  0  0  0  0  0  0
   -6.3540   -0.8967    0.1398 H   0  0  0  0  0  0  0  0  0  0  0  0
   -4.1849   -1.7293   -0.7498 H   0  0  0  0  0  0  0  0  0  0  0  0
   -2.6934    2.2523   -0.8238 H   0  0  0  0  0  0  0  0  0  0  0  0
   -2.2252   -1.2293   -2.0533 H   0  0  0  0  0  0  0  0  0  0  0  0
   -1.4751    0.3648   -2.0429 H   0  0  0  0  0  0  0  0  0  0  0  0
   -1.5236   -2.8921   -0.6120 H   0  0  0  0  0  0  0  0  0  0  0  0
    0.3630   -4.2706    2.2177 H   0  0  0  0  0  0  0  0  0  0  0  0
   -0.8722   -4.5526    0.9621 H   0  0  0  0  0  0  0  0  0  0  0  0
    0.8169   -5.7405   -0.0147 H   0  0  0  0  0  0  0  0  0  0  0  0
    2.0942   -4.8184    0.8074 H   0  0  0  0  0  0  0  0  0  0  0  0
    1.2447   -4.1549   -0.7053 H   0  0  0  0  0  0  0  0  0  0  0  0
    0.8610    1.5381    2.1269 H   0  0  0  0  0  0  0  0  0  0  0  0
    1.7077    0.1633    3.0045 H   0  0  0  0  0  0  0  0  0  0  0  0
    2.4748   -0.4433   -0.3534 H   0  0  0  0  0  0  0  0  0  0  0  0
    5.5107   -0.8920    0.5505 H   0  0  0  0  0  0  0  0  0  0  0  0
    7.6424   -0.1276   -0.4879 H   0  0  0  0  0  0  0  0  0  0  0  0
    5.5885    2.9436   -2.5872 H   0  0  0  0  0  0  0  0  0  0  0  0
    3.4661    2.2034   -1.5706 H   0  0  0  0  0  0  0  0  0  0  0  0
  1  2  1  0
  2  3  1  0
  3  4  2  0
  4  5  1  0
  5  6  2  0
  6  7  1  0
  7  8  2  0
  7  9  1  0
  9 10  1  0
 10 11  2  0
 11 12  1  0
 12 13  1  0
 13 14  1  0
 12 15  2  0
 15 16  1  0
 16 17  1  0
 17 18  2  0
 16 19  1  0
 19 20  1  0
 20 21  2  0
 20 22  1  0
 22 23  1  0
 23 24  2  0
 24 25  1  0
 25 26  2  0
 26 27  1  0
 27 28  2  0
 26 29  1  0
  8  3  1  0
 17 10  1  0
 28 23  1  0
  1 30  1  0
  1 31  1  0
  1 32  1  0
  4 33  1  0
  5 34  1  0
  6 35  1  0
  8 36  1  0
  9 37  1  0
  9 38  1  0
 11 39  1  0
 13 40  1  0
 13 41  1  0
 14 42  1  0
 14 43  1  0
 14 44  1  0
 19 45  1  0
 19 46  1  0
 22 47  1  0
 24 48  1  0
 25 49  1  0
 27 50  1  0
 28 51  1  0
M  END
>  <Ligand ID>  (1) 
LIG0004126

>  <Ligand>  (1) 
CHEMBL2391255

>  <SMILES>  (1) 
COc1cccc(c1)Cc1cc(CC)nn(c1=O)CC(=O)Nc1ccc(cc1)I

>  <CID>  (1) 
71698528.0

>  <ChEMBL ID>  (1) 
nan

>  <InChiKey>  (1) 
QPAXHVPVXIAMHT-UHFFFAOYSA-N

>  <InChi>  (1) 
InChI=1S/C22H22IN3O3/c1-3-18-13-16(11-15-5-4-6-20(12-15)29-2)22(28)26(25-18)14-21(27)24-19-9-7-17(23)8-10-19/h4-10,12-13H,3,11,14H2,1-2H3,(H,24,27)

>  <IUPAC Name>  (1) 
2-[3-ethyl-5-[(3-methoxyphenyl)methyl]-6-oxopyridazin-1-yl]-N-(4-iodophenyl)acetamide

$$$$
