
     RDKit          3D

 56 57  0  0  0  0  0  0  0  0999 V2000
   -6.0125   -1.0157   -1.5867 C   0  0  0  0  0  0  0  0  0  0  0  0
   -6.1091   -0.2162   -0.3188 C   0  0  0  0  0  0  0  0  0  0  0  0
   -5.4059    1.0981   -0.4663 C   0  0  0  0  0  0  0  0  0  0  0  0
   -3.9640    1.0348   -0.7506 C   0  0  0  0  0  0  0  0  0  0  0  0
   -3.0400    0.4309    0.2374 C   0  0  0  0  0  0  0  0  0  0  0  0
   -1.6333    0.5468   -0.3698 C   0  0  1  0  0  0  0  0  0  0  0  0
   -0.6357   -0.0336    0.5565 C   0  0  0  0  0  0  0  0  0  0  0  0
   -0.0826    0.7292    1.4947 C   0  0  0  0  0  0  0  0  0  0  0  0
    0.9099    0.1765    2.4264 C   0  0  1  0  0  0  0  0  0  0  0  0
    0.5510   -1.1473    3.0327 C   0  0  0  0  0  0  0  0  0  0  0  0
    1.8236   -1.5635    3.5515 O   0  0  0  0  0  0  0  0  0  0  0  0
    2.7488   -1.1659    2.5871 C   0  0  0  0  0  0  0  0  0  0  0  0
    3.9356   -1.5809    2.4546 O   0  0  0  0  0  0  0  0  0  0  0  0
    2.1564   -0.1904    1.7356 N   0  0  0  0  0  0  0  0  0  0  0  0
    2.6304    0.3468    0.4759 C   0  0  0  0  0  0  0  0  0  0  0  0
    3.4865    1.5672    0.7343 C   0  0  0  0  0  0  0  0  0  0  0  0
    4.0966    2.2638   -0.8473 S   0  0  0  0  0  0  0  0  0  0  0  0
    5.2283    1.1264   -1.6419 C   0  0  0  0  0  0  0  0  0  0  0  0
    4.5006   -0.1839   -2.8555 S   0  0  0  0  0  0  0  0  0  0  0  0
    6.0797   -0.8364   -3.1758 C   0  0  0  0  0  0  0  0  0  0  0  0
    6.9799   -0.0692   -2.3959 C   0  0  0  0  0  0  0  0  0  0  0  0
    6.3514    0.8521   -1.7093 N   0  0  0  0  0  0  0  0  0  0  0  0
    8.4388   -0.3092   -2.3855 C   0  0  0  0  0  0  0  0  0  0  0  0
    9.2257    0.3812   -1.6884 O   0  0  0  0  0  0  0  0  0  0  0  0
    8.9754   -1.3240   -3.1631 O   0  0  0  0  0  0  0  0  0  0  0  0
   -1.5906   -0.0391   -1.6303 O   0  0  0  0  0  0  0  0  0  0  0  0
   -3.0257    1.2732    1.5117 C   0  0  0  0  0  0  0  0  0  0  0  0
   -3.2753   -0.9746    0.6445 C   0  0  0  0  0  0  0  0  0  0  0  0
   -5.3180   -0.6362   -2.3354 H   0  0  0  0  0  0  0  0  0  0  0  0
   -5.6895   -2.0629   -1.3313 H   0  0  0  0  0  0  0  0  0  0  0  0
   -7.0322   -1.1472   -2.0490 H   0  0  0  0  0  0  0  0  0  0  0  0
   -5.8152   -0.8234    0.5416 H   0  0  0  0  0  0  0  0  0  0  0  0
   -7.2159    0.0718   -0.2257 H   0  0  0  0  0  0  0  0  0  0  0  0
   -5.9023    1.5966   -1.3629 H   0  0  0  0  0  0  0  0  0  0  0  0
   -5.6670    1.8013    0.3669 H   0  0  0  0  0  0  0  0  0  0  0  0
   -3.5546    2.0810   -0.9487 H   0  0  0  0  0  0  0  0  0  0  0  0
   -3.7858    0.5376   -1.7596 H   0  0  0  0  0  0  0  0  0  0  0  0
   -1.4524    1.6303   -0.5204 H   0  0  0  0  0  0  0  0  0  0  0  0
   -0.3005   -1.0677    0.5285 H   0  0  0  0  0  0  0  0  0  0  0  0
   -0.3373    1.7924    1.6118 H   0  0  0  0  0  0  0  0  0  0  0  0
    1.1246    0.8633    3.2639 H   0  0  0  0  0  0  0  0  0  0  0  0
   -0.1842   -1.0326    3.8453 H   0  0  0  0  0  0  0  0  0  0  0  0
    0.2782   -1.9183    2.2904 H   0  0  0  0  0  0  0  0  0  0  0  0
    1.7594    0.6162   -0.1542 H   0  0  0  0  0  0  0  0  0  0  0  0
    3.2516   -0.3717   -0.0798 H   0  0  0  0  0  0  0  0  0  0  0  0
    2.8455    2.3584    1.1747 H   0  0  0  0  0  0  0  0  0  0  0  0
    4.3027    1.3642    1.4379 H   0  0  0  0  0  0  0  0  0  0  0  0
    6.3731   -1.6894   -3.8536 H   0  0  0  0  0  0  0  0  0  0  0  0
    9.9702   -1.4536   -3.1529 H   0  0  0  0  0  0  0  0  0  0  0  0
   -2.1528   -0.8369   -1.7191 H   0  0  0  0  0  0  0  0  0  0  0  0
   -2.4069    0.8028    2.2970 H   0  0  0  0  0  0  0  0  0  0  0  0
   -4.0698    1.2632    1.9303 H   0  0  0  0  0  0  0  0  0  0  0  0
   -2.6583    2.2900    1.3419 H   0  0  0  0  0  0  0  0  0  0  0  0
   -3.7840   -1.0672    1.6345 H   0  0  0  0  0  0  0  0  0  0  0  0
   -2.2421   -1.4091    0.8725 H   0  0  0  0  0  0  0  0  0  0  0  0
   -3.6801   -1.6494   -0.1023 H   0  0  0  0  0  0  0  0  0  0  0  0
  1  2  1  0
  2  3  1  0
  3  4  1  0
  4  5  1  0
  5  6  1  0
  6  7  1  0
  7  8  2  0
  8  9  1  0
  9 10  1  0
 10 11  1  0
 11 12  1  0
 12 13  2  0
 12 14  1  0
 14 15  1  0
 15 16  1  0
 16 17  1  0
 17 18  1  0
 18 19  1  0
 19 20  1  0
 20 21  2  0
 21 22  1  0
 21 23  1  0
 23 24  2  0
 23 25  1  0
  6 26  1  0
  5 27  1  0
  5 28  1  0
 14  9  1  0
 22 18  2  0
  1 29  1  0
  1 30  1  0
  1 31  1  0
  2 32  1  0
  2 33  1  0
  3 34  1  0
  3 35  1  0
  4 36  1  0
  4 37  1  0
  6 38  1  6
  7 39  1  0
  8 40  1  0
  9 41  1  1
 10 42  1  0
 10 43  1  0
 15 44  1  0
 15 45  1  0
 16 46  1  0
 16 47  1  0
 20 48  1  0
 25 49  1  0
 26 50  1  0
 27 51  1  0
 27 52  1  0
 27 53  1  0
 28 54  1  0
 28 55  1  0
 28 56  1  0
M  END
>  <Ligand ID>  (1) 
LIG0004189

>  <Ligand>  (1) 
CHEMBL3753853

>  <SMILES>  (1) 
CCCCC([C@@H](/C=C/[C@H]1COC(=O)N1CCSc1scc(n1)C(=O)O)O)(C)C

>  <CID>  (1) 
59554824.0

>  <ChEMBL ID>  (1) 
nan

>  <InChiKey>  (1) 
VRUZHKLMXAKPBL-RPWHMATFSA-N

>  <InChi>  (1) 
InChI=1S/C19H28N2O5S2/c1-4-5-8-19(2,3)15(22)7-6-13-11-26-18(25)21(13)9-10-27-17-20-14(12-28-17)16(23)24/h6-7,12-13,15,22H,4-5,8-11H2,1-3H3,(H,23,24)/b7-6+/t13-,15+/m0/s1

>  <IUPAC Name>  (1) 
2-[2-[(4S)-4-[(E,3R)-3-hydroxy-4,4-dimethyloct-1-enyl]-2-oxo-1,3-oxazolidin-3-yl]ethylsulfanyl]-1,3-thiazole-4-carboxylic acid

$$$$
