
     RDKit          3D

 43 46  0  0  0  0  0  0  0  0999 V2000
   -9.8160   -0.2380   -1.4239 F   0  0  0  0  0  0  0  0  0  0  0  0
   -8.5122   -0.2423   -1.0493 C   0  0  0  0  0  0  0  0  0  0  0  0
   -8.2477   -0.1917    0.3070 C   0  0  0  0  0  0  0  0  0  0  0  0
   -6.9325   -0.1949    0.7157 C   0  0  0  0  0  0  0  0  0  0  0  0
   -5.9162   -0.2479   -0.2260 C   0  0  0  0  0  0  0  0  0  0  0  0
   -6.1564   -0.2990   -1.5836 C   0  0  0  0  0  0  0  0  0  0  0  0
   -7.4796   -0.2957   -1.9919 C   0  0  0  0  0  0  0  0  0  0  0  0
   -4.8580   -0.3649   -2.7409 Cl  0  0  0  0  0  0  0  0  0  0  0  0
   -4.5470   -0.2480    0.2801 C   0  0  0  0  0  0  0  0  0  0  0  0
   -4.2003   -0.2008    1.5797 N   0  0  0  0  0  0  0  0  0  0  0  0
   -2.8973   -0.2163    1.6779 O   0  0  0  0  0  0  0  0  0  0  0  0
   -2.3484   -0.2731    0.4712 C   0  0  0  0  0  0  0  0  0  0  0  0
   -3.3842   -0.2926   -0.3970 N   0  0  0  0  0  0  0  0  0  0  0  0
   -0.8890   -0.3062    0.1896 C   0  0  0  0  0  0  0  0  0  0  0  0
   -0.3301    1.0787    0.0295 C   0  0  0  0  0  0  0  0  0  0  0  0
    1.1569    0.9483   -0.2539 C   0  0  0  0  0  0  0  0  0  0  0  0
    1.8539    0.2837    0.8065 N   0  0  0  0  0  0  0  0  0  0  0  0
    3.2524    0.0230    0.8128 C   0  0  0  0  0  0  0  0  0  0  0  0
    3.8753   -0.6273    1.8722 C   0  0  0  0  0  0  0  0  0  0  0  0
    5.1950   -0.8803    1.8919 N   0  0  0  0  0  0  0  0  0  0  0  0
    5.9860   -0.5057    0.8633 C   0  0  0  0  0  0  0  0  0  0  0  0
    5.4173    0.1447   -0.2160 C   0  0  0  0  0  0  0  0  0  0  0  0
    4.0475    0.4120   -0.2459 C   0  0  0  0  0  0  0  0  0  0  0  0
    6.2330    0.5211   -1.2573 C   0  0  0  0  0  0  0  0  0  0  0  0
    7.5939    0.2558   -1.2280 C   0  0  0  0  0  0  0  0  0  0  0  0
    8.1509   -0.3971   -0.1398 C   0  0  0  0  0  0  0  0  0  0  0  0
    7.3408   -0.7789    0.9103 C   0  0  0  0  0  0  0  0  0  0  0  0
    8.6096    0.7427   -2.5607 Cl  0  0  0  0  0  0  0  0  0  0  0  0
   -9.0425   -0.1503    1.0415 H   0  0  0  0  0  0  0  0  0  0  0  0
   -6.7486   -0.1548    1.7795 H   0  0  0  0  0  0  0  0  0  0  0  0
   -7.7343   -0.3342   -3.0441 H   0  0  0  0  0  0  0  0  0  0  0  0
   -0.3995   -0.9225    0.9420 H   0  0  0  0  0  0  0  0  0  0  0  0
   -0.7546   -0.8005   -0.8135 H   0  0  0  0  0  0  0  0  0  0  0  0
   -0.5386    1.7466    0.8619 H   0  0  0  0  0  0  0  0  0  0  0  0
   -0.7710    1.5118   -0.8932 H   0  0  0  0  0  0  0  0  0  0  0  0
    1.3176    0.4398   -1.2049 H   0  0  0  0  0  0  0  0  0  0  0  0
    1.5645    1.9851   -0.3468 H   0  0  0  0  0  0  0  0  0  0  0  0
    1.3008   -0.0348    1.6378 H   0  0  0  0  0  0  0  0  0  0  0  0
    3.2671   -0.9395    2.7111 H   0  0  0  0  0  0  0  0  0  0  0  0
    3.6094    0.9178   -1.0865 H   0  0  0  0  0  0  0  0  0  0  0  0
    5.8128    1.0327   -2.1159 H   0  0  0  0  0  0  0  0  0  0  0  0
    9.2092   -0.6216   -0.0811 H   0  0  0  0  0  0  0  0  0  0  0  0
    7.7102   -1.2848    1.7762 H   0  0  0  0  0  0  0  0  0  0  0  0
  1  2  1  0
  2  3  2  0
  3  4  1  0
  4  5  2  0
  5  6  1  0
  6  7  2  0
  6  8  1  0
  5  9  1  0
  9 10  2  0
 10 11  1  0
 11 12  1  0
 12 13  2  0
 12 14  1  0
 14 15  1  0
 15 16  1  0
 16 17  1  0
 17 18  1  0
 18 19  2  0
 19 20  1  0
 20 21  2  0
 21 22  1  0
 22 23  2  0
 22 24  1  0
 24 25  2  0
 25 26  1  0
 26 27  2  0
 25 28  1  0
  7  2  1  0
 13  9  1  0
 23 18  1  0
 27 21  1  0
  3 29  1  0
  4 30  1  0
  7 31  1  0
 14 32  1  0
 14 33  1  0
 15 34  1  0
 15 35  1  0
 16 36  1  0
 16 37  1  0
 17 38  1  0
 19 39  1  0
 23 40  1  0
 24 41  1  0
 26 42  1  0
 27 43  1  0
M  END
>  <Ligand ID>  (1) 
LIG0001222

>  <Ligand>  (1) 
CHEMBL499065

>  <SMILES>  (1) 
Fc1ccc(c(c1)Cl)c1noc(n1)CCCNc1cnc2c(c1)cc(cc2)Cl

>  <CID>  (1) 
25034209.0

>  <ChEMBL ID>  (1) 
nan

>  <InChiKey>  (1) 
QIYABHDIJFHOEJ-UHFFFAOYSA-N

>  <InChi>  (1) 
InChI=1S/C20H15Cl2FN4O/c21-13-3-6-18-12(8-13)9-15(11-25-18)24-7-1-2-19-26-20(27-28-19)16-5-4-14(23)10-17(16)22/h3-6,8-11,24H,1-2,7H2

>  <IUPAC Name>  (1) 
6-chloro-N-[3-[3-(2-chloro-4-fluorophenyl)-1,2,4-oxadiazol-5-yl]propyl]quinolin-3-amine

$$$$
