
     RDKit          3D

 46 50  0  0  0  0  0  0  0  0999 V2000
   -5.8636    1.6358    3.2580 O   0  0  0  0  0  0  0  0  0  0  0  0
   -5.4281    1.2989    2.1809 C   0  0  0  0  0  0  0  0  0  0  0  0
   -4.4536    2.0892    1.3829 C   0  0  0  0  0  0  0  0  0  0  0  0
   -3.4228    1.2485    0.7118 C   0  0  0  0  0  0  0  0  0  0  0  0
   -3.9536    0.0020    0.1585 N   0  0  0  0  0  0  0  0  0  0  0  0
   -5.3684   -0.1773    0.1881 C   0  0  0  0  0  0  0  0  0  0  0  0
   -5.8859    0.0085    1.5960 C   0  0  0  0  0  0  0  0  0  0  0  0
   -3.0167   -0.9263   -0.3629 C   0  0  0  0  0  0  0  0  0  0  0  0
   -3.3717   -2.1379   -0.9240 C   0  0  0  0  0  0  0  0  0  0  0  0
   -2.4326   -3.0263   -1.4256 C   0  0  0  0  0  0  0  0  0  0  0  0
   -1.0869   -2.7295   -1.3830 C   0  0  0  0  0  0  0  0  0  0  0  0
   -0.7049   -1.5182   -0.8241 C   0  0  0  0  0  0  0  0  0  0  0  0
   -1.6540   -0.6528   -0.3328 C   0  0  0  0  0  0  0  0  0  0  0  0
    0.7242   -1.2400   -0.7968 C   0  0  0  0  0  0  0  0  0  0  0  0
    1.5802   -2.1445   -1.3000 N   0  0  0  0  0  0  0  0  0  0  0  0
    2.9238   -1.9463   -1.3050 C   0  0  0  0  0  0  0  0  0  0  0  0
    3.7950   -2.9502   -1.8576 N   0  0  0  0  0  0  0  0  0  0  0  0
    3.4341   -0.8007   -0.7876 N   0  0  0  0  0  0  0  0  0  0  0  0
    2.6462    0.1468   -0.2687 C   0  0  0  0  0  0  0  0  0  0  0  0
    1.2688   -0.0863   -0.2781 C   0  0  0  0  0  0  0  0  0  0  0  0
    3.3941    1.1775    0.1750 N   0  0  0  0  0  0  0  0  0  0  0  0
    4.6662    0.8636   -0.0730 C   0  0  0  0  0  0  0  0  0  0  0  0
    4.6802   -0.3350   -0.6555 N   0  0  0  0  0  0  0  0  0  0  0  0
    5.7817    1.7536    0.2749 C   0  0  0  0  0  0  0  0  0  0  0  0
    6.9062    2.0204   -0.5067 C   0  0  0  0  0  0  0  0  0  0  0  0
    7.6726    2.9068    0.2263 C   0  0  0  0  0  0  0  0  0  0  0  0
    6.9911    3.1345    1.3993 C   0  0  0  0  0  0  0  0  0  0  0  0
    5.8864    2.4419    1.3938 O   0  0  0  0  0  0  0  0  0  0  0  0
   -5.0402    2.6882    0.6501 H   0  0  0  0  0  0  0  0  0  0  0  0
   -3.9837    2.8203    2.0714 H   0  0  0  0  0  0  0  0  0  0  0  0
   -2.6586    0.9855    1.4934 H   0  0  0  0  0  0  0  0  0  0  0  0
   -2.9600    1.7988   -0.1252 H   0  0  0  0  0  0  0  0  0  0  0  0
   -5.6894   -1.1811   -0.1394 H   0  0  0  0  0  0  0  0  0  0  0  0
   -5.8869    0.5258   -0.5279 H   0  0  0  0  0  0  0  0  0  0  0  0
   -6.9899   -0.0877    1.5615 H   0  0  0  0  0  0  0  0  0  0  0  0
   -5.4652   -0.8079    2.2081 H   0  0  0  0  0  0  0  0  0  0  0  0
   -4.3932   -2.4335   -0.9909 H   0  0  0  0  0  0  0  0  0  0  0  0
   -2.7470   -3.9664   -1.8581 H   0  0  0  0  0  0  0  0  0  0  0  0
   -0.3772   -3.4404   -1.7813 H   0  0  0  0  0  0  0  0  0  0  0  0
   -1.3462    0.2882    0.1003 H   0  0  0  0  0  0  0  0  0  0  0  0
    4.0049   -2.9471   -2.8813 H   0  0  0  0  0  0  0  0  0  0  0  0
    4.1937   -3.6597   -1.2025 H   0  0  0  0  0  0  0  0  0  0  0  0
    0.6442    0.6682    0.1350 H   0  0  0  0  0  0  0  0  0  0  0  0
    7.0917    1.5917   -1.4845 H   0  0  0  0  0  0  0  0  0  0  0  0
    8.6138    3.3262   -0.0758 H   0  0  0  0  0  0  0  0  0  0  0  0
    7.2813    3.7740    2.2225 H   0  0  0  0  0  0  0  0  0  0  0  0
  1  2  2  0
  2  3  1  0
  3  4  1  0
  4  5  1  0
  5  6  1  0
  6  7  1  0
  5  8  1  0
  8  9  2  0
  9 10  1  0
 10 11  2  0
 11 12  1  0
 12 13  2  0
 12 14  1  0
 14 15  1  0
 15 16  2  0
 16 17  1  0
 16 18  1  0
 18 19  1  0
 19 20  1  0
 19 21  2  0
 21 22  1  0
 22 23  2  0
 22 24  1  0
 24 25  2  0
 25 26  1  0
 26 27  2  0
 27 28  1  0
  7  2  1  0
 13  8  1  0
 20 14  2  0
 28 24  1  0
 23 18  1  0
  3 29  1  0
  3 30  1  0
  4 31  1  0
  4 32  1  0
  6 33  1  0
  6 34  1  0
  7 35  1  0
  7 36  1  0
  9 37  1  0
 10 38  1  0
 11 39  1  0
 13 40  1  0
 17 41  1  0
 17 42  1  0
 20 43  1  0
 25 44  1  0
 26 45  1  0
 27 46  1  0
M  END
>  <Ligand ID>  (1) 
LIG0000852

>  <Ligand>  (1) 
CHEMBL354419

>  <SMILES>  (1) 
O=C1CCN(CC1)c1cccc(c1)c1nc(N)n2c(c1)nc(n2)c1ccco1

>  <CID>  (1) 
23570252.0

>  <ChEMBL ID>  (1) 
nan

>  <InChiKey>  (1) 
AHQGDBSNVPNSCB-UHFFFAOYSA-N

>  <InChi>  (1) 
InChI=1S/C20H18N6O2/c21-20-22-16(12-18-23-19(24-26(18)20)17-5-2-10-28-17)13-3-1-4-14(11-13)25-8-6-15(27)7-9-25/h1-5,10-12H,6-9H2,(H2,21,22)

>  <IUPAC Name>  (1) 
1-[3-[5-amino-2-(furan-2-yl)-[1,2,4]triazolo[1,5-c]pyrimidin-7-yl]phenyl]piperidin-4-one

$$$$
