
     RDKit          3D

 57 59  0  0  0  0  0  0  0  0999 V2000
    4.0907    0.9249    1.1910 O   0  0  0  0  0  0  0  0  0  0  0  0
    3.1127   -0.0028    1.0860 C   0  0  2  0  0  0  0  0  0  0  0  0
    3.5816   -1.3429    1.6019 C   0  0  0  0  0  0  0  0  0  0  0  0
    4.6210   -1.8295    0.9277 O   0  0  0  0  0  0  0  0  0  0  0  0
    5.8883   -1.6997    0.5729 C   0  0  0  0  0  0  0  0  0  0  0  0
    6.4121   -2.6932   -0.2886 C   0  0  0  0  0  0  0  0  0  0  0  0
    7.6974   -2.6883   -0.7323 C   0  0  0  0  0  0  0  0  0  0  0  0
    8.5447   -1.6831   -0.3401 C   0  0  0  0  0  0  0  0  0  0  0  0
    8.1011   -0.6918    0.4925 C   0  0  0  0  0  0  0  0  0  0  0  0
    6.7909   -0.7216    0.9284 C   0  0  0  0  0  0  0  0  0  0  0  0
    9.8585   -1.6318   -0.7625 O   0  0  0  0  0  0  0  0  0  0  0  0
    2.7128   -0.2841   -0.3651 C   0  0  0  0  0  0  0  0  0  0  0  0
    2.2327    0.8792   -1.0302 N   0  0  0  0  0  0  0  0  0  0  0  0
    0.9815    1.3688   -0.5467 C   0  0  0  0  0  0  0  0  0  0  0  0
   -0.0955    0.3654   -0.9111 C   0  0  0  0  0  0  0  0  0  0  0  0
   -1.4111    0.8928   -0.3981 C   0  0  0  0  0  0  0  0  0  0  0  0
   -1.8413    0.5666    0.8869 C   0  0  0  0  0  0  0  0  0  0  0  0
   -3.0586    1.0843    1.3002 C   0  0  0  0  0  0  0  0  0  0  0  0
   -3.8336    1.8965    0.4836 C   0  0  0  0  0  0  0  0  0  0  0  0
   -3.3564    2.1859   -0.7797 C   0  0  0  0  0  0  0  0  0  0  0  0
   -2.1510    1.6965   -1.2406 C   0  0  0  0  0  0  0  0  0  0  0  0
   -5.0744    2.4034    0.9521 N   0  0  0  0  0  0  0  0  0  0  0  0
   -6.5121    2.3827   -0.0037 S   0  0  0  0  0  0  0  0  0  0  0  0
   -6.2234    3.0859   -1.2975 O   0  0  0  0  0  0  0  0  0  0  0  0
   -7.6460    3.0631    0.6955 O   0  0  0  0  0  0  0  0  0  0  0  0
   -6.8946    0.7084   -0.3575 C   0  0  0  0  0  0  0  0  0  0  0  0
   -6.4193    0.0531   -1.4725 C   0  0  0  0  0  0  0  0  0  0  0  0
   -6.7989   -1.2687   -1.6334 C   0  0  0  0  0  0  0  0  0  0  0  0
   -7.6156   -1.9094   -0.7238 C   0  0  0  0  0  0  0  0  0  0  0  0
   -8.0911   -1.2673    0.3840 C   0  0  0  0  0  0  0  0  0  0  0  0
   -7.7216    0.0655    0.5664 C   0  0  0  0  0  0  0  0  0  0  0  0
   -8.1155   -3.7450   -0.9877 Br  0  0  0  0  0  0  0  0  0  0  0  0
    4.0743    1.5091    1.9695 H   0  0  0  0  0  0  0  0  0  0  0  0
    2.2000    0.3139    1.6695 H   0  0  0  0  0  0  0  0  0  0  0  0
    3.6965   -1.3102    2.7266 H   0  0  0  0  0  0  0  0  0  0  0  0
    2.6727   -2.0183    1.4623 H   0  0  0  0  0  0  0  0  0  0  0  0
    5.7652   -3.5132   -0.6248 H   0  0  0  0  0  0  0  0  0  0  0  0
    8.0841   -3.4538   -1.3900 H   0  0  0  0  0  0  0  0  0  0  0  0
    8.7695    0.1064    0.8055 H   0  0  0  0  0  0  0  0  0  0  0  0
    6.5020    0.0737    1.5960 H   0  0  0  0  0  0  0  0  0  0  0  0
   10.5655   -1.1467   -0.2038 H   0  0  0  0  0  0  0  0  0  0  0  0
    3.6521   -0.6075   -0.8667 H   0  0  0  0  0  0  0  0  0  0  0  0
    2.0471   -1.1509   -0.3423 H   0  0  0  0  0  0  0  0  0  0  0  0
    2.9919    1.5709   -1.0815 H   0  0  0  0  0  0  0  0  0  0  0  0
    0.9616    1.5054    0.5483 H   0  0  0  0  0  0  0  0  0  0  0  0
    0.7673    2.3549   -1.0006 H   0  0  0  0  0  0  0  0  0  0  0  0
    0.0867   -0.6250   -0.5066 H   0  0  0  0  0  0  0  0  0  0  0  0
   -0.1108    0.2963   -2.0189 H   0  0  0  0  0  0  0  0  0  0  0  0
   -1.2294   -0.0713    1.5231 H   0  0  0  0  0  0  0  0  0  0  0  0
   -3.3621    0.8084    2.3085 H   0  0  0  0  0  0  0  0  0  0  0  0
   -3.9114    2.8127   -1.4642 H   0  0  0  0  0  0  0  0  0  0  0  0
   -1.8099    1.9512   -2.2496 H   0  0  0  0  0  0  0  0  0  0  0  0
   -5.1309    2.8065    1.9075 H   0  0  0  0  0  0  0  0  0  0  0  0
   -5.7799    0.5769   -2.1709 H   0  0  0  0  0  0  0  0  0  0  0  0
   -6.4351   -1.8168   -2.5113 H   0  0  0  0  0  0  0  0  0  0  0  0
   -8.7345   -1.7176    1.1314 H   0  0  0  0  0  0  0  0  0  0  0  0
   -8.0983    0.5811    1.4482 H   0  0  0  0  0  0  0  0  0  0  0  0
  1  2  1  0
  2  3  1  0
  3  4  1  0
  4  5  1  0
  5  6  2  0
  6  7  1  0
  7  8  2  0
  8  9  1  0
  9 10  2  0
  8 11  1  0
  2 12  1  0
 12 13  1  0
 13 14  1  0
 14 15  1  0
 15 16  1  0
 16 17  2  0
 17 18  1  0
 18 19  2  0
 19 20  1  0
 20 21  2  0
 19 22  1  0
 22 23  1  0
 23 24  2  0
 23 25  2  0
 23 26  1  0
 26 27  2  0
 27 28  1  0
 28 29  2  0
 29 30  1  0
 30 31  2  0
 29 32  1  0
 10  5  1  0
 21 16  1  0
 31 26  1  0
  1 33  1  0
  2 34  1  1
  3 35  1  0
  3 36  1  0
  6 37  1  0
  7 38  1  0
  9 39  1  0
 10 40  1  0
 11 41  1  0
 12 42  1  0
 12 43  1  0
 13 44  1  0
 14 45  1  0
 14 46  1  0
 15 47  1  0
 15 48  1  0
 17 49  1  0
 18 50  1  0
 20 51  1  0
 21 52  1  0
 22 53  1  0
 27 54  1  0
 28 55  1  0
 30 56  1  0
 31 57  1  0
M  END
>  <Ligand ID>  (1) 
LIG0005936

>  <Ligand>  (1) 
CHEMBL267545

>  <SMILES>  (1) 
O[C@H](COc1ccc(cc1)O)CNCCc1ccc(cc1)NS(=O)(=O)c1ccc(cc1)Br

>  <CID>  (1) 
10075383.0

>  <ChEMBL ID>  (1) 
nan

>  <InChiKey>  (1) 
VMAXOLZYDATUED-NRFANRHFSA-N

>  <InChi>  (1) 
InChI=1S/C23H25BrN2O5S/c24-18-3-11-23(12-4-18)32(29,30)26-19-5-1-17(2-6-19)13-14-25-15-21(28)16-31-22-9-7-20(27)8-10-22/h1-12,21,25-28H,13-16H2/t21-/m0/s1

>  <IUPAC Name>  (1) 
4-bromo-N-[4-[2-[[(2S)-2-hydroxy-3-(4-hydroxyphenoxy)propyl]amino]ethyl]phenyl]benzenesulfonamide

$$$$
