
     RDKit          3D

 44 44  0  0  0  0  0  0  0  0999 V2000
    3.2428    3.2532    0.6498 C   0  0  0  0  0  0  0  0  0  0  0  0
    3.8336    2.1014    0.0952 O   0  0  0  0  0  0  0  0  0  0  0  0
    3.0323    1.1299   -0.4697 C   0  0  0  0  0  0  0  0  0  0  0  0
    1.6733    1.3346   -0.4648 C   0  0  0  0  0  0  0  0  0  0  0  0
    0.8118    0.4228   -1.0032 C   0  0  0  0  0  0  0  0  0  0  0  0
    1.3525   -0.7184   -1.5570 C   0  0  0  0  0  0  0  0  0  0  0  0
    2.7399   -0.9241   -1.5611 C   0  0  0  0  0  0  0  0  0  0  0  0
    3.6085   -0.0264   -1.0278 C   0  0  0  0  0  0  0  0  0  0  0  0
    4.9657   -0.1044   -0.9710 O   0  0  0  0  0  0  0  0  0  0  0  0
    5.7584   -0.5221    0.0627 C   0  0  0  0  0  0  0  0  0  0  0  0
    5.5474   -1.8857    0.5228 C   0  0  0  0  0  0  0  0  0  0  0  0
    4.7410   -2.7364    0.1236 O   0  0  0  0  0  0  0  0  0  0  0  0
    6.3847   -2.3181    1.5884 O   0  0  0  0  0  0  0  0  0  0  0  0
    3.1535   -2.0528   -2.1695 F   0  0  0  0  0  0  0  0  0  0  0  0
   -0.6611    0.6209   -1.0093 C   0  0  0  0  0  0  0  0  0  0  0  0
   -1.3391   -0.0850    0.4918 P   0  0  0  0  0  0  0  0  0  0  0  0
   -0.7283   -1.4515    0.7066 O   0  0  0  0  0  0  0  0  0  0  0  0
   -3.1240   -0.2090    0.5044 C   0  0  0  0  0  0  0  0  0  0  0  0
   -3.7479   -0.3620   -0.8385 C   0  0  0  0  0  0  0  0  0  0  0  0
   -5.2644   -0.4567   -0.6975 C   0  0  1  0  0  0  0  0  0  0  0  0
   -5.5935   -1.6336    0.1413 C   0  0  0  0  0  0  0  0  0  0  0  0
   -5.2500   -2.7849   -0.2684 O   0  0  0  0  0  0  0  0  0  0  0  0
   -6.2609   -1.4936    1.3477 O   0  0  0  0  0  0  0  0  0  0  0  0
   -5.7486    0.7352   -0.0358 N   0  0  0  0  0  0  0  0  0  0  0  0
   -0.8324    0.8923    1.7784 O   0  0  0  0  0  0  0  0  0  0  0  0
    4.0045    3.8744    1.1646 H   0  0  0  0  0  0  0  0  0  0  0  0
    2.4793    3.0041    1.4035 H   0  0  0  0  0  0  0  0  0  0  0  0
    2.7751    3.8855   -0.1385 H   0  0  0  0  0  0  0  0  0  0  0  0
    1.2394    2.2318   -0.0308 H   0  0  0  0  0  0  0  0  0  0  0  0
    0.6830   -1.4552   -1.9901 H   0  0  0  0  0  0  0  0  0  0  0  0
    5.6140    0.2058    0.9361 H   0  0  0  0  0  0  0  0  0  0  0  0
    6.8444   -0.3781   -0.2713 H   0  0  0  0  0  0  0  0  0  0  0  0
    6.5016   -3.3088    1.7487 H   0  0  0  0  0  0  0  0  0  0  0  0
   -0.8918    1.7032   -1.0363 H   0  0  0  0  0  0  0  0  0  0  0  0
   -1.0443    0.1771   -1.9388 H   0  0  0  0  0  0  0  0  0  0  0  0
   -3.5735    0.6712    1.0086 H   0  0  0  0  0  0  0  0  0  0  0  0
   -3.4333   -1.0841    1.1178 H   0  0  0  0  0  0  0  0  0  0  0  0
   -3.5455    0.4481   -1.5396 H   0  0  0  0  0  0  0  0  0  0  0  0
   -3.4501   -1.3023   -1.3469 H   0  0  0  0  0  0  0  0  0  0  0  0
   -5.7432   -0.5241   -1.7020 H   0  0  0  0  0  0  0  0  0  0  0  0
   -6.4480   -2.2498    1.9664 H   0  0  0  0  0  0  0  0  0  0  0  0
   -6.1602    1.4012   -0.7372 H   0  0  0  0  0  0  0  0  0  0  0  0
   -6.5539    0.5037    0.6201 H   0  0  0  0  0  0  0  0  0  0  0  0
   -1.5928    1.4705    2.0485 H   0  0  0  0  0  0  0  0  0  0  0  0
  1  2  1  0
  2  3  1  0
  3  4  2  0
  4  5  1  0
  5  6  2  0
  6  7  1  0
  7  8  2  0
  8  9  1  0
  9 10  1  0
 10 11  1  0
 11 12  2  0
 11 13  1  0
  7 14  1  0
  5 15  1  0
 15 16  1  0
 16 17  2  0
 16 18  1  0
 18 19  1  0
 19 20  1  0
 20 21  1  0
 21 22  2  0
 21 23  1  0
 20 24  1  0
 16 25  1  0
  8  3  1  0
  1 26  1  0
  1 27  1  0
  1 28  1  0
  4 29  1  0
  6 30  1  0
 10 31  1  0
 10 32  1  0
 13 33  1  0
 15 34  1  0
 15 35  1  0
 18 36  1  0
 18 37  1  0
 19 38  1  0
 19 39  1  0
 20 40  1  6
 23 41  1  0
 24 42  1  0
 24 43  1  0
 25 44  1  0
M  END
>  <Ligand ID>  (1) 
LIG0004728

>  <Ligand>  (1) 
CHEMBL3913188

>  <SMILES>  (1) 
COc1cc(cc(c1OCC(=O)O)F)CP(=O)(CC[C@@H](C(=O)O)N)O

>  <CID>  (1) 
71041871.0

>  <ChEMBL ID>  (1) 
nan

>  <InChiKey>  (1) 
HLWOFNYCURCWQU-JTQLQIEISA-N

>  <InChi>  (1) 
InChI=1S/C14H19FNO8P/c1-23-11-5-8(4-9(15)13(11)24-6-12(17)18)7-25(21,22)3-2-10(16)14(19)20/h4-5,10H,2-3,6-7,16H2,1H3,(H,17,18)(H,19,20)(H,21,22)/t10-/m0/s1

>  <IUPAC Name>  (1) 
(2S)-2-amino-4-[[4-(carboxymethoxy)-3-fluoro-5-methoxyphenyl]methyl-hydroxyphosphoryl]butanoic acid

$$$$
