
     RDKit          3D

 27 28  0  0  0  0  0  0  0  0999 V2000
    3.9662    0.3387    0.0427 N   0  0  0  0  0  0  0  0  0  0  0  0
    2.7949    0.4130    0.9116 C   0  0  0  0  0  0  0  0  0  0  0  0
    1.5698    0.2577    0.0661 C   0  0  1  0  0  0  0  0  0  0  0  0
    1.5003   -1.0445   -0.6847 C   0  0  0  0  0  0  0  0  0  0  0  0
    0.4965   -0.6933    0.4481 C   0  0  2  0  0  0  0  0  0  0  0  0
   -0.8683   -0.4842   -0.0452 C   0  0  0  0  0  0  0  0  0  0  0  0
   -1.2958   -1.3362   -1.0737 C   0  0  0  0  0  0  0  0  0  0  0  0
   -2.5430   -1.2229   -1.6442 C   0  0  0  0  0  0  0  0  0  0  0  0
   -3.3690   -0.2326   -1.1663 C   0  0  0  0  0  0  0  0  0  0  0  0
   -2.9478    0.6012   -0.1575 C   0  0  0  0  0  0  0  0  0  0  0  0
   -1.7022    0.5166    0.4400 C   0  0  0  0  0  0  0  0  0  0  0  0
   -1.3217    1.4224    1.5422 C   0  0  0  0  0  0  0  0  0  0  0  0
   -2.4274    2.2651    1.7580 F   0  0  0  0  0  0  0  0  0  0  0  0
   -0.2642    2.2359    1.3117 F   0  0  0  0  0  0  0  0  0  0  0  0
   -1.1585    0.7212    2.7409 F   0  0  0  0  0  0  0  0  0  0  0  0
    4.2682    1.2773   -0.2976 H   0  0  0  0  0  0  0  0  0  0  0  0
    3.8685   -0.3755   -0.7071 H   0  0  0  0  0  0  0  0  0  0  0  0
    2.9132   -0.3869    1.6688 H   0  0  0  0  0  0  0  0  0  0  0  0
    2.8483    1.3991    1.4155 H   0  0  0  0  0  0  0  0  0  0  0  0
    1.2636    1.1763   -0.4808 H   0  0  0  0  0  0  0  0  0  0  0  0
    1.1585   -0.9776   -1.7166 H   0  0  0  0  0  0  0  0  0  0  0  0
    2.2038   -1.8511   -0.4401 H   0  0  0  0  0  0  0  0  0  0  0  0
    0.5917   -1.2922    1.3665 H   0  0  0  0  0  0  0  0  0  0  0  0
   -0.6361   -2.1236   -1.4520 H   0  0  0  0  0  0  0  0  0  0  0  0
   -2.9066   -1.8596   -2.4367 H   0  0  0  0  0  0  0  0  0  0  0  0
   -4.3649   -0.1109   -1.5934 H   0  0  0  0  0  0  0  0  0  0  0  0
   -3.6379    1.3667    0.1838 H   0  0  0  0  0  0  0  0  0  0  0  0
  1  2  1  0
  2  3  1  0
  3  4  1  0
  4  5  1  0
  5  6  1  0
  6  7  2  0
  7  8  1  0
  8  9  2  0
  9 10  1  0
 10 11  2  0
 11 12  1  0
 12 13  1  0
 12 14  1  0
 12 15  1  0
  5  3  1  0
 11  6  1  0
  1 16  1  0
  1 17  1  0
  2 18  1  0
  2 19  1  0
  3 20  1  6
  4 21  1  0
  4 22  1  0
  5 23  1  1
  7 24  1  0
  8 25  1  0
  9 26  1  0
 10 27  1  0
M  END
>  <Ligand ID>  (1) 
LIG0005674

>  <Ligand>  (1) 
CHEMBL492917

>  <SMILES>  (1) 
NC[C@H]1C[C@@H]1c1ccccc1C(F)(F)F

>  <CID>  (1) 
44572757.0

>  <ChEMBL ID>  (1) 
nan

>  <InChiKey>  (1) 
JBDVVLCWMKDZLY-APPZFPTMSA-N

>  <InChi>  (1) 
InChI=1S/C11H12F3N/c12-11(13,14)10-4-2-1-3-8(10)9-5-7(9)6-15/h1-4,7,9H,5-6,15H2/t7-,9+/m1/s1

>  <IUPAC Name>  (1) 
[(1S,2S)-2-[2-(trifluoromethyl)phenyl]cyclopropyl]methanamine

$$$$
