
     RDKit          3D

 78 80  0  0  0  0  0  0  0  0999 V2000
   -8.6790    2.8391    2.8267 O   0  0  0  0  0  0  0  0  0  0  0  0
   -7.3779    2.6855    2.3428 C   0  0  0  0  0  0  0  0  0  0  0  0
   -6.9943    1.2639    2.5500 C   0  0  0  0  0  0  0  0  0  0  0  0
   -6.9697    0.3612    1.4948 C   0  0  0  0  0  0  0  0  0  0  0  0
   -6.6132   -0.9641    1.6842 C   0  0  0  0  0  0  0  0  0  0  0  0
   -6.2674   -1.4404    2.9329 C   0  0  0  0  0  0  0  0  0  0  0  0
   -6.2933   -0.5434    3.9731 C   0  0  0  0  0  0  0  0  0  0  0  0
   -6.6456    0.7895    3.8172 C   0  0  0  0  0  0  0  0  0  0  0  0
   -6.6656    1.6839    4.8858 O   0  0  0  0  0  0  0  0  0  0  0  0
   -6.6199   -1.8520    0.4700 C   0  0  2  0  0  0  0  0  0  0  0  0
   -5.4709   -1.4464   -0.4442 C   0  0  0  0  0  0  0  0  0  0  0  0
   -5.5898   -2.2462   -1.6420 N   0  0  0  0  0  0  0  0  0  0  0  0
   -4.5456   -1.9632   -2.6206 C   0  0  0  0  0  0  0  0  0  0  0  0
   -4.6516   -0.6223   -3.2189 C   0  0  0  0  0  0  0  0  0  0  0  0
   -3.5956   -0.3143   -4.2065 C   0  0  0  0  0  0  0  0  0  0  0  0
   -2.1854   -0.1633   -3.8320 C   0  0  0  0  0  0  0  0  0  0  0  0
   -1.4300   -1.2300   -3.1617 C   0  0  0  0  0  0  0  0  0  0  0  0
    0.0679   -0.8298   -2.9985 C   0  0  0  0  0  0  0  0  0  0  0  0
    0.1313    0.3117   -2.2403 O   0  0  0  0  0  0  0  0  0  0  0  0
    1.4319    0.7564   -2.0449 C   0  0  0  0  0  0  0  0  0  0  0  0
    2.3107   -0.2617   -1.3441 C   0  0  0  0  0  0  0  0  0  0  0  0
    3.6931    0.3507   -1.1930 C   0  0  0  0  0  0  0  0  0  0  0  0
    4.6433   -0.5894   -0.5081 C   0  0  0  0  0  0  0  0  0  0  0  0
    5.9651    0.0735   -0.3962 C   0  0  0  0  0  0  0  0  0  0  0  0
    6.8485   -0.1180   -1.4624 C   0  0  0  0  0  0  0  0  0  0  0  0
    8.0851    0.4727   -1.4044 C   0  0  0  0  0  0  0  0  0  0  0  0
    8.4308    1.2384   -0.3037 C   0  0  0  0  0  0  0  0  0  0  0  0
    7.5590    1.4205    0.7362 C   0  0  0  0  0  0  0  0  0  0  0  0
    6.3079    0.8364    0.7019 C   0  0  0  0  0  0  0  0  0  0  0  0
    7.9393    2.2460    1.9208 C   0  0  0  0  0  0  0  0  0  0  0  0
    8.5535    1.2973    2.8604 N   0  0  0  0  0  0  0  0  0  0  0  0
    9.9146    0.9396    2.9496 C   0  0  0  0  0  0  0  0  0  0  0  0
   10.8152    1.4110    2.2006 O   0  0  0  0  0  0  0  0  0  0  0  0
   10.1188   -0.0175    3.9941 N   0  0  0  0  0  0  0  0  0  0  0  0
    8.8337   -0.2782    4.5928 C   0  0  0  0  0  0  0  0  0  0  0  0
    8.6880   -1.0765    5.5380 O   0  0  0  0  0  0  0  0  0  0  0  0
    7.8742    0.5466    3.8764 C   0  0  0  0  0  0  0  0  0  0  0  0
    6.6437    0.5742    4.1333 O   0  0  0  0  0  0  0  0  0  0  0  0
   -7.8089   -1.5799   -0.2417 O   0  0  0  0  0  0  0  0  0  0  0  0
   -9.2441    3.1387    2.0689 H   0  0  0  0  0  0  0  0  0  0  0  0
   -7.3074    2.8762    1.2566 H   0  0  0  0  0  0  0  0  0  0  0  0
   -6.6426    3.3489    2.8427 H   0  0  0  0  0  0  0  0  0  0  0  0
   -7.2388    0.7243    0.5148 H   0  0  0  0  0  0  0  0  0  0  0  0
   -5.9944   -2.4765    3.0511 H   0  0  0  0  0  0  0  0  0  0  0  0
   -6.0305   -0.8683    4.9697 H   0  0  0  0  0  0  0  0  0  0  0  0
   -7.5788    1.8817    5.2872 H   0  0  0  0  0  0  0  0  0  0  0  0
   -6.5285   -2.9056    0.7397 H   0  0  0  0  0  0  0  0  0  0  0  0
   -5.4465   -0.3760   -0.6303 H   0  0  0  0  0  0  0  0  0  0  0  0
   -4.5406   -1.7321    0.1267 H   0  0  0  0  0  0  0  0  0  0  0  0
   -5.4967   -3.2567   -1.3997 H   0  0  0  0  0  0  0  0  0  0  0  0
   -4.7959   -2.6979   -3.4662 H   0  0  0  0  0  0  0  0  0  0  0  0
   -3.5818   -2.2371   -2.2734 H   0  0  0  0  0  0  0  0  0  0  0  0
   -5.6390   -0.4651   -3.7505 H   0  0  0  0  0  0  0  0  0  0  0  0
   -4.6040    0.2063   -2.4470 H   0  0  0  0  0  0  0  0  0  0  0  0
   -3.6735   -1.0771   -5.0577 H   0  0  0  0  0  0  0  0  0  0  0  0
   -3.9522    0.6367   -4.7487 H   0  0  0  0  0  0  0  0  0  0  0  0
   -2.0006    0.8188   -3.2659 H   0  0  0  0  0  0  0  0  0  0  0  0
   -1.6111    0.0527   -4.8064 H   0  0  0  0  0  0  0  0  0  0  0  0
   -1.7284   -1.2367   -2.0552 H   0  0  0  0  0  0  0  0  0  0  0  0
   -1.5048   -2.2444   -3.5273 H   0  0  0  0  0  0  0  0  0  0  0  0
    0.5745   -0.7922   -3.9696 H   0  0  0  0  0  0  0  0  0  0  0  0
    0.4685   -1.6761   -2.3773 H   0  0  0  0  0  0  0  0  0  0  0  0
    1.8518    0.9240   -3.0660 H   0  0  0  0  0  0  0  0  0  0  0  0
    1.4738    1.7297   -1.5279 H   0  0  0  0  0  0  0  0  0  0  0  0
    2.3933   -1.1930   -1.9595 H   0  0  0  0  0  0  0  0  0  0  0  0
    1.9375   -0.4731   -0.3259 H   0  0  0  0  0  0  0  0  0  0  0  0
    4.1196    0.6089   -2.1805 H   0  0  0  0  0  0  0  0  0  0  0  0
    3.6489    1.2873   -0.6089 H   0  0  0  0  0  0  0  0  0  0  0  0
    4.3371   -0.8372    0.5284 H   0  0  0  0  0  0  0  0  0  0  0  0
    4.7295   -1.5339   -1.0831 H   0  0  0  0  0  0  0  0  0  0  0  0
    6.5559   -0.7260   -2.3225 H   0  0  0  0  0  0  0  0  0  0  0  0
    8.7723    0.3172   -2.2457 H   0  0  0  0  0  0  0  0  0  0  0  0
    9.4331    1.6918   -0.3025 H   0  0  0  0  0  0  0  0  0  0  0  0
    5.6069    0.9707    1.5158 H   0  0  0  0  0  0  0  0  0  0  0  0
    7.0087    2.6625    2.3383 H   0  0  0  0  0  0  0  0  0  0  0  0
    8.6572    3.0321    1.6625 H   0  0  0  0  0  0  0  0  0  0  0  0
   11.0376   -0.4587    4.2820 H   0  0  0  0  0  0  0  0  0  0  0  0
   -7.9177   -2.2063   -0.9889 H   0  0  0  0  0  0  0  0  0  0  0  0
  1  2  1  0
  2  3  1  0
  3  4  2  0
  4  5  1  0
  5  6  2  0
  6  7  1  0
  7  8  2  0
  8  9  1  0
  5 10  1  0
 10 11  1  0
 11 12  1  0
 12 13  1  0
 13 14  1  0
 14 15  1  0
 15 16  1  0
 16 17  1  0
 17 18  1  0
 18 19  1  0
 19 20  1  0
 20 21  1  0
 21 22  1  0
 22 23  1  0
 23 24  1  0
 24 25  2  0
 25 26  1  0
 26 27  2  0
 27 28  1  0
 28 29  2  0
 28 30  1  0
 30 31  1  0
 31 32  1  0
 32 33  2  0
 32 34  1  0
 34 35  1  0
 35 36  2  0
 35 37  1  0
 37 38  2  0
 10 39  1  0
  8  3  1  0
 29 24  1  0
 37 31  1  0
  1 40  1  0
  2 41  1  0
  2 42  1  0
  4 43  1  0
  6 44  1  0
  7 45  1  0
  9 46  1  0
 10 47  1  1
 11 48  1  0
 11 49  1  0
 12 50  1  0
 13 51  1  0
 13 52  1  0
 14 53  1  0
 14 54  1  0
 15 55  1  0
 15 56  1  0
 16 57  1  0
 16 58  1  0
 17 59  1  0
 17 60  1  0
 18 61  1  0
 18 62  1  0
 20 63  1  0
 20 64  1  0
 21 65  1  0
 21 66  1  0
 22 67  1  0
 22 68  1  0
 23 69  1  0
 23 70  1  0
 25 71  1  0
 26 72  1  0
 27 73  1  0
 29 74  1  0
 30 75  1  0
 30 76  1  0
 34 77  1  0
 39 78  1  0
M  END
>  <Ligand ID>  (1) 
LIG0002500

>  <Ligand>  (1) 
CHEMBL1814275

>  <SMILES>  (1) 
OCc1cc(ccc1O)[C@H](CNCCCCCCOCCCCc1cccc(c1)CN1C(=O)NC(=O)C1=O)O

>  <CID>  (1) 
56678849.0

>  <ChEMBL ID>  (1) 
nan

>  <InChiKey>  (1) 
MKLXSINHBJIRJU-SANMLTNESA-N

>  <InChi>  (1) 
InChI=1S/C29H39N3O7/c33-20-24-17-23(11-12-25(24)34)26(35)18-30-13-4-1-2-5-14-39-15-6-3-8-21-9-7-10-22(16-21)19-32-28(37)27(36)31-29(32)38/h7,9-12,16-17,26,30,33-35H,1-6,8,13-15,18-20H2,(H,31,36,38)/t26-/m0/s1

>  <IUPAC Name>  (1) 
1-[[3-[4-[6-[[(2R)-2-hydroxy-2-[4-hydroxy-3-(hydroxymethyl)phenyl]ethyl]amino]hexoxy]butyl]phenyl]methyl]imidazolidine-2,4,5-trione

$$$$
