
     RDKit          3D

  9  8  0  0  0  0  0  0  0  0999 V2000
    1.6988    0.0278   -0.6146 O   0  0  0  0  0  0  0  0  0  0  0  0
    0.6454    0.0783    0.3205 C   0  0  0  0  0  0  0  0  0  0  0  0
    0.7391    0.7606    1.3695 O   0  0  0  0  0  0  0  0  0  0  0  0
   -0.5721   -0.6995    0.0243 C   0  0  0  0  0  0  0  0  0  0  0  0
   -1.7555    0.4386   -0.8091 S   0  0  0  0  0  0  0  0  0  0  0  0
    2.6012    0.4456   -0.4335 H   0  0  0  0  0  0  0  0  0  0  0  0
   -1.0230   -1.1244    0.9493 H   0  0  0  0  0  0  0  0  0  0  0  0
   -0.3788   -1.5285   -0.7168 H   0  0  0  0  0  0  0  0  0  0  0  0
   -1.9551    1.6015   -0.0896 H   0  0  0  0  0  0  0  0  0  0  0  0
  1  2  1  0
  2  3  2  0
  2  4  1  0
  4  5  1  0
  1  6  1  0
  4  7  1  0
  4  8  1  0
  5  9  1  0
M  END
>  <Ligand ID>  (1) 
LIG0000389

>  <Ligand>  (1) 
thioglycolic acid

>  <SMILES>  (1) 
OC(=O)CS

>  <CID>  (1) 
1133.0

>  <ChEMBL ID>  (1) 
nan

>  <InChiKey>  (1) 
CWERGRDVMFNCDR-UHFFFAOYSA-N

>  <InChi>  (1) 
InChI=1S/C2H4O2S/c3-2(4)1-5/h5H,1H2,(H,3,4)

>  <IUPAC Name>  (1) 
2-sulfanylacetic acid

$$$$
