
     RDKit          3D

123132  0  0  0  0  0  0  0  0999 V2000
   14.0554    0.2221   -1.9671 C   0  0  0  0  0  0  0  0  0  0  0  0
   13.0057   -0.4788   -2.4205 C   0  0  0  0  0  0  0  0  0  0  0  0
   12.6721   -1.8094   -1.8943 C   0  0  0  0  0  0  0  0  0  0  0  0
   11.3639   -1.9105   -1.2928 N   0  0  0  0  0  0  0  0  0  0  0  0
   10.3533   -1.7762   -2.2905 C   0  0  0  0  0  0  0  0  0  0  0  0
    8.9683   -1.5896   -1.7053 C   0  0  0  0  0  0  0  0  0  0  0  0
    8.9334   -0.4263   -0.7556 C   0  0  2  0  0  0  0  0  0  0  0  0
   10.3320    0.1197   -0.6268 C   0  0  2  0  0  0  0  0  0  0  0  0
   11.1995   -1.0265   -0.1664 C   0  0  1  0  0  0  0  0  0  0  0  0
   10.7509   -1.7238    1.0652 C   0  0  0  0  0  0  0  0  0  0  0  0
    9.3468   -1.5278    1.4425 C   0  0  0  0  0  0  0  0  0  0  0  0
    8.5040   -0.9113    0.5731 C   0  0  0  0  0  0  0  0  0  0  0  0
    7.1833   -0.6427    0.7743 C   0  0  0  0  0  0  0  0  0  0  0  0
    6.7411   -0.0070   -0.3772 O   0  0  0  0  0  0  0  0  0  0  0  0
    7.8711    0.5744   -1.0715 C   0  0  1  0  0  0  0  0  0  0  0  0
    8.0813    1.9152   -0.4437 C   0  0  0  0  0  0  0  0  0  0  0  0
    9.4966    2.3718   -0.3354 C   0  0  0  0  0  0  0  0  0  0  0  0
   10.2992    1.2779    0.3360 C   0  0  0  0  0  0  0  0  0  0  0  0
    6.6416   -1.0351    1.9820 C   0  0  0  0  0  0  0  0  0  0  0  0
    7.4513   -1.6676    2.9051 C   0  0  0  0  0  0  0  0  0  0  0  0
    8.8057   -1.9236    2.6562 C   0  0  0  0  0  0  0  0  0  0  0  0
    5.2791   -0.7803    2.2425 O   0  0  0  0  0  0  0  0  0  0  0  0
    4.9392    0.4603    2.7530 C   0  0  0  0  0  0  0  0  0  0  0  0
    5.9096    1.2683    2.9379 O   0  0  0  0  0  0  0  0  0  0  0  0
    3.6010    0.9223    3.0934 C   0  0  0  0  0  0  0  0  0  0  0  0
    2.8994    1.6645    2.0034 C   0  0  0  0  0  0  0  0  0  0  0  0
    2.7480    0.7429    0.8136 C   0  0  0  0  0  0  0  0  0  0  0  0
    2.0503    1.4510   -0.3029 C   0  0  0  0  0  0  0  0  0  0  0  0
    0.7009    1.9626    0.0464 C   0  0  0  0  0  0  0  0  0  0  0  0
   -0.2102    0.8543    0.4829 C   0  0  0  0  0  0  0  0  0  0  0  0
   -0.3666   -0.1526   -0.6055 C   0  0  0  0  0  0  0  0  0  0  0  0
   -1.2908   -1.3057   -0.2525 C   0  0  0  0  0  0  0  0  0  0  0  0
   -2.6435   -0.7663   -0.0038 C   0  0  0  0  0  0  0  0  0  0  0  0
   -2.9653    0.4456   -0.1945 O   0  0  0  0  0  0  0  0  0  0  0  0
   -3.6718   -1.5818    0.4691 O   0  0  0  0  0  0  0  0  0  0  0  0
   -4.9553   -1.0456    0.6984 C   0  0  0  0  0  0  0  0  0  0  0  0
   -5.2420   -0.3967    1.8828 C   0  0  0  0  0  0  0  0  0  0  0  0
   -6.4920    0.1358    2.1275 C   0  0  0  0  0  0  0  0  0  0  0  0
   -7.5116    0.0400    1.1921 C   0  0  0  0  0  0  0  0  0  0  0  0
   -7.2220   -0.6081    0.0129 C   0  0  0  0  0  0  0  0  0  0  0  0
   -5.9619   -1.1468   -0.2385 C   0  0  0  0  0  0  0  0  0  0  0  0
   -8.2908   -0.7261   -0.9915 C   0  0  1  0  0  0  0  0  0  0  0  0
   -8.1385   -1.9129   -1.9054 C   0  0  0  0  0  0  0  0  0  0  0  0
   -8.1995   -3.1934   -1.0986 C   0  0  0  0  0  0  0  0  0  0  0  0
   -9.4723   -3.2818   -0.2885 C   0  0  0  0  0  0  0  0  0  0  0  0
   -9.5522   -2.0613    0.6340 C   0  0  0  0  0  0  0  0  0  0  0  0
   -9.6062   -0.8686   -0.2909 C   0  0  1  0  0  0  0  0  0  0  0  0
   -9.8790    0.4363    0.4709 C   0  0  0  0  0  0  0  0  0  0  0  0
   -8.8028    0.6384    1.5334 C   0  0  0  0  0  0  0  0  0  0  0  0
   -9.9606    1.4876   -0.4411 N   0  0  0  0  0  0  0  0  0  0  0  0
   -8.6088    1.7401   -0.9707 C   0  0  0  0  0  0  0  0  0  0  0  0
   -8.2396    0.5504   -1.8172 C   0  0  0  0  0  0  0  0  0  0  0  0
  -10.6674    2.6675   -0.2518 C   0  0  0  0  0  0  0  0  0  0  0  0
  -12.1369    2.6383   -0.2803 C   0  0  0  0  0  0  0  0  0  0  0  0
  -12.7131    2.0775   -1.6017 C   0  0  0  0  0  0  0  0  0  0  0  0
  -13.1950    0.8457   -0.8198 C   0  0  0  0  0  0  0  0  0  0  0  0
  -13.0112    1.6970    0.4305 C   0  0  0  0  0  0  0  0  0  0  0  0
   14.6344   -0.2692   -1.1860 H   0  0  0  0  0  0  0  0  0  0  0  0
   14.2868    1.2016   -2.3671 H   0  0  0  0  0  0  0  0  0  0  0  0
   12.3857   -0.0598   -3.1953 H   0  0  0  0  0  0  0  0  0  0  0  0
   13.4124   -2.0447   -1.0727 H   0  0  0  0  0  0  0  0  0  0  0  0
   12.8352   -2.6090   -2.6469 H   0  0  0  0  0  0  0  0  0  0  0  0
   10.3217   -2.7279   -2.8802 H   0  0  0  0  0  0  0  0  0  0  0  0
   10.5719   -0.9718   -3.0354 H   0  0  0  0  0  0  0  0  0  0  0  0
    8.2824   -1.4591   -2.5719 H   0  0  0  0  0  0  0  0  0  0  0  0
    8.6713   -2.5549   -1.2432 H   0  0  0  0  0  0  0  0  0  0  0  0
   10.7022    0.4753   -1.5869 H   0  0  0  0  0  0  0  0  0  0  0  0
   12.2123   -0.5863    0.0666 H   0  0  0  0  0  0  0  0  0  0  0  0
   10.9427   -2.8245    0.8959 H   0  0  0  0  0  0  0  0  0  0  0  0
   11.3654   -1.4696    1.9643 H   0  0  0  0  0  0  0  0  0  0  0  0
    7.6485    0.5781   -2.1379 H   0  0  0  0  0  0  0  0  0  0  0  0
    7.5668    2.6568   -1.1232 H   0  0  0  0  0  0  0  0  0  0  0  0
    7.5889    2.0089    0.5358 H   0  0  0  0  0  0  0  0  0  0  0  0
    9.4971    3.2247    0.4046 H   0  0  0  0  0  0  0  0  0  0  0  0
    9.9293    2.6760   -1.3099 H   0  0  0  0  0  0  0  0  0  0  0  0
    9.6847    0.9416    1.2186 H   0  0  0  0  0  0  0  0  0  0  0  0
   11.3042    1.6295    0.6439 H   0  0  0  0  0  0  0  0  0  0  0  0
    7.0404   -1.9828    3.8586 H   0  0  0  0  0  0  0  0  0  0  0  0
    9.4377   -2.4193    3.3815 H   0  0  0  0  0  0  0  0  0  0  0  0
    2.9942    0.0499    3.4499 H   0  0  0  0  0  0  0  0  0  0  0  0
    3.6462    1.6265    3.9759 H   0  0  0  0  0  0  0  0  0  0  0  0
    3.4803    2.5500    1.7356 H   0  0  0  0  0  0  0  0  0  0  0  0
    1.9178    2.0129    2.3843 H   0  0  0  0  0  0  0  0  0  0  0  0
    2.2146   -0.1968    1.0495 H   0  0  0  0  0  0  0  0  0  0  0  0
    3.7755    0.4697    0.4752 H   0  0  0  0  0  0  0  0  0  0  0  0
    2.0065    0.7595   -1.1779 H   0  0  0  0  0  0  0  0  0  0  0  0
    2.7078    2.2913   -0.6737 H   0  0  0  0  0  0  0  0  0  0  0  0
    0.2365    2.4159   -0.8770 H   0  0  0  0  0  0  0  0  0  0  0  0
    0.7129    2.7324    0.8490 H   0  0  0  0  0  0  0  0  0  0  0  0
    0.3046    0.3221    1.3283 H   0  0  0  0  0  0  0  0  0  0  0  0
   -1.1641    1.2523    0.8951 H   0  0  0  0  0  0  0  0  0  0  0  0
   -0.6943    0.3756   -1.5112 H   0  0  0  0  0  0  0  0  0  0  0  0
    0.6046   -0.6399   -0.8806 H   0  0  0  0  0  0  0  0  0  0  0  0
   -0.9338   -1.7852    0.6995 H   0  0  0  0  0  0  0  0  0  0  0  0
   -1.2715   -2.0967   -1.0015 H   0  0  0  0  0  0  0  0  0  0  0  0
   -4.4462   -0.3179    2.6229 H   0  0  0  0  0  0  0  0  0  0  0  0
   -6.6546    0.6369    3.0848 H   0  0  0  0  0  0  0  0  0  0  0  0
   -5.7211   -1.6561   -1.1602 H   0  0  0  0  0  0  0  0  0  0  0  0
   -7.2367   -1.9081   -2.5154 H   0  0  0  0  0  0  0  0  0  0  0  0
   -9.0571   -1.9152   -2.5516 H   0  0  0  0  0  0  0  0  0  0  0  0
   -8.2391   -4.0275   -1.8300 H   0  0  0  0  0  0  0  0  0  0  0  0
   -7.3558   -3.2308   -0.4005 H   0  0  0  0  0  0  0  0  0  0  0  0
  -10.3927   -3.2988   -0.8878 H   0  0  0  0  0  0  0  0  0  0  0  0
   -9.4320   -4.1788    0.3288 H   0  0  0  0  0  0  0  0  0  0  0  0
   -8.6744   -2.1177    1.2720 H   0  0  0  0  0  0  0  0  0  0  0  0
  -10.4955   -2.1408    1.1942 H   0  0  0  0  0  0  0  0  0  0  0  0
  -10.4511   -1.0281   -0.9623 H   0  0  0  0  0  0  0  0  0  0  0  0
  -10.8368    0.2319    0.9833 H   0  0  0  0  0  0  0  0  0  0  0  0
   -9.1731    0.1443    2.4540 H   0  0  0  0  0  0  0  0  0  0  0  0
   -8.6971    1.7231    1.7716 H   0  0  0  0  0  0  0  0  0  0  0  0
   -7.8912    2.0186   -0.2053 H   0  0  0  0  0  0  0  0  0  0  0  0
   -8.7086    2.5983   -1.6607 H   0  0  0  0  0  0  0  0  0  0  0  0
   -8.9743    0.5401   -2.6586 H   0  0  0  0  0  0  0  0  0  0  0  0
   -7.2061    0.6698   -2.1763 H   0  0  0  0  0  0  0  0  0  0  0  0
  -10.3714    3.3595   -1.1330 H   0  0  0  0  0  0  0  0  0  0  0  0
  -10.2868    3.2653    0.6495 H   0  0  0  0  0  0  0  0  0  0  0  0
  -12.5685    3.7255   -0.2668 H   0  0  0  0  0  0  0  0  0  0  0  0
  -13.5799    2.6270   -1.9986 H   0  0  0  0  0  0  0  0  0  0  0  0
  -11.9723    1.8741   -2.3761 H   0  0  0  0  0  0  0  0  0  0  0  0
  -12.5882   -0.0466   -0.9069 H   0  0  0  0  0  0  0  0  0  0  0  0
  -14.2557    0.5841   -1.0644 H   0  0  0  0  0  0  0  0  0  0  0  0
  -14.0612    2.1838    0.5939 H   0  0  0  0  0  0  0  0  0  0  0  0
  -12.7092    1.2076    1.3459 H   0  0  0  0  0  0  0  0  0  0  0  0
  1  2  2  0
  2  3  1  0
  3  4  1  0
  4  5  1  0
  5  6  1  0
  7  6  1  6
  7  8  1  0
  8  9  1  0
  9 10  1  0
 10 11  1  0
 11 12  2  0
 12 13  1  0
 13 14  1  0
 14 15  1  0
 15 16  1  0
 16 17  1  0
 17 18  1  0
 13 19  2  0
 19 20  1  0
 20 21  2  0
 19 22  1  0
 22 23  1  0
 23 24  2  0
 23 25  1  0
 25 26  1  0
 26 27  1  0
 27 28  1  0
 28 29  1  0
 29 30  1  0
 30 31  1  0
 31 32  1  0
 32 33  1  0
 33 34  2  0
 33 35  1  0
 35 36  1  0
 36 37  2  0
 37 38  1  0
 38 39  2  0
 39 40  1  0
 40 41  2  0
 40 42  1  0
 42 43  1  6
 43 44  1  0
 44 45  1  0
 45 46  1  0
 46 47  1  0
 47 48  1  0
 48 49  1  0
 48 50  1  0
 50 51  1  0
 51 52  1  0
 50 53  1  0
 53 54  1  0
 54 55  1  0
 55 56  1  0
 56 57  1  0
  9  4  1  0
 21 11  1  0
 41 36  1  0
 52 42  1  0
 57 54  1  0
 15  7  1  0
 49 39  1  0
 12  7  1  0
 47 42  1  0
 18  8  1  0
  1 58  1  0
  1 59  1  0
  2 60  1  0
  3 61  1  0
  3 62  1  0
  5 63  1  0
  5 64  1  0
  6 65  1  0
  6 66  1  0
  8 67  1  6
  9 68  1  1
 10 69  1  0
 10 70  1  0
 15 71  1  6
 16 72  1  0
 16 73  1  0
 17 74  1  0
 17 75  1  0
 18 76  1  0
 18 77  1  0
 20 78  1  0
 21 79  1  0
 25 80  1  0
 25 81  1  0
 26 82  1  0
 26 83  1  0
 27 84  1  0
 27 85  1  0
 28 86  1  0
 28 87  1  0
 29 88  1  0
 29 89  1  0
 30 90  1  0
 30 91  1  0
 31 92  1  0
 31 93  1  0
 32 94  1  0
 32 95  1  0
 37 96  1  0
 38 97  1  0
 41 98  1  0
 43 99  1  0
 43100  1  0
 44101  1  0
 44102  1  0
 45103  1  0
 45104  1  0
 46105  1  0
 46106  1  0
 47107  1  6
 48108  1  0
 49109  1  0
 49110  1  0
 51111  1  0
 51112  1  0
 52113  1  0
 52114  1  0
 53115  1  0
 53116  1  0
 54117  1  0
 55118  1  0
 55119  1  0
 56120  1  0
 56121  1  0
 57122  1  0
 57123  1  0
M  END
>  <Ligand ID>  (1) 
LIG0005626

>  <Ligand>  (1) 
CHEMBL584791

>  <SMILES>  (1) 
C=CCN1CC[C@@]23[C@@H]4[C@H]1Cc1c3c(O[C@H]2CCC4)c(cc1)OC(=O)CCCCCCCCC(=O)Oc1ccc2c(c1)[C@]13CCCC[C@H]3C(C2)N(CC1)CC1CCC1

>  <CID>  (1) 
45483978.0

>  <ChEMBL ID>  (1) 
nan

>  <InChiKey>  (1) 
ZRBBGKPHKZQOJO-YVVMWBFGSA-N

>  <InChi>  (1) 
InChI=1S/C50H66N2O5/c1-2-27-51-29-26-50-39-16-12-17-44(50)57-48-43(23-21-36(47(48)50)31-42(39)51)56-46(54)19-8-6-4-3-5-7-18-45(53)55-37-22-20-35-30-41-38-15-9-10-24-49(38,40(35)32-37)25-28-52(41)33-34-13-11-14-34/h2,20-23,32,34,38-39,41-42,44H,1,3-19,24-31,33H2/t38-,39-,41?,42+,44-,49+,50+/m0/s1

>  <IUPAC Name>  (1) 
10-O-[(4R,4aR,7aS,12bS)-3-prop-2-enyl-2,4,4a,5,6,7,7a,13-octahydro-1H-4,12-methanobenzofuro[3,2-e]isoquinolin-9-yl] 1-O-[(1R,10R)-17-(cyclobutylmethyl)-17-azatetracyclo[7.5.3.01,10.02,7]heptadeca-2(7),3,5-trien-4-yl] decanedioate

$$$$
