
     RDKit          3D

 98101  0  0  0  0  0  0  0  0999 V2000
   -6.7179    1.7642   -2.4804 O   0  0  0  0  0  0  0  0  0  0  0  0
   -6.6076    0.6224   -1.9146 C   0  0  0  0  0  0  0  0  0  0  0  0
   -7.7400   -0.0776   -1.4087 N   0  0  0  0  0  0  0  0  0  0  0  0
   -9.0696    0.4084   -1.4759 C   0  0  0  0  0  0  0  0  0  0  0  0
   -9.7543    0.1610   -2.6622 C   0  0  0  0  0  0  0  0  0  0  0  0
  -11.0652    0.5533   -2.8552 C   0  0  0  0  0  0  0  0  0  0  0  0
  -11.6810    1.2105   -1.8116 C   0  0  0  0  0  0  0  0  0  0  0  0
  -11.0055    1.4504   -0.6517 C   0  0  0  0  0  0  0  0  0  0  0  0
   -9.6777    1.0576   -0.4441 C   0  0  0  0  0  0  0  0  0  0  0  0
   -9.0791    1.3738    0.8325 C   0  0  0  0  0  0  0  0  0  0  0  0
   -7.8941    2.0242    1.0305 C   0  0  0  0  0  0  0  0  0  0  0  0
   -7.4170    2.2557    2.3114 C   0  0  0  0  0  0  0  0  0  0  0  0
   -8.1110    1.8436    3.4345 C   0  0  0  0  0  0  0  0  0  0  0  0
   -9.3201    1.1802    3.2435 C   0  0  0  0  0  0  0  0  0  0  0  0
   -9.7897    0.9528    1.9648 C   0  0  0  0  0  0  0  0  0  0  0  0
  -10.2112    0.6511    4.6306 Cl  0  0  0  0  0  0  0  0  0  0  0  0
   -7.6026    2.0923    4.7122 O   0  0  0  0  0  0  0  0  0  0  0  0
   -5.3778    0.0002   -1.7629 O   0  0  0  0  0  0  0  0  0  0  0  0
   -4.2067    0.6611   -2.2698 C   0  0  0  0  0  0  0  0  0  0  0  0
   -3.5432   -0.1975   -3.2960 C   0  0  0  0  0  0  0  0  0  0  0  0
   -2.0558   -0.1842   -3.3030 C   0  0  0  0  0  0  0  0  0  0  0  0
   -1.4865   -0.2530   -1.9742 N   0  0  0  0  0  0  0  0  0  0  0  0
   -1.8922    0.9873   -1.3209 C   0  0  0  0  0  0  0  0  0  0  0  0
   -3.3782    1.0159   -1.0785 C   0  0  0  0  0  0  0  0  0  0  0  0
   -1.9275   -1.4022   -1.2114 C   0  0  0  0  0  0  0  0  0  0  0  0
   -1.3635   -2.6483   -1.8261 C   0  0  0  0  0  0  0  0  0  0  0  0
    0.1427   -2.5598   -1.8413 C   0  0  0  0  0  0  0  0  0  0  0  0
    0.6502   -2.4218   -0.4428 C   0  0  0  0  0  0  0  0  0  0  0  0
    2.1859   -2.3473   -0.3907 C   0  0  0  0  0  0  0  0  0  0  0  0
    2.8414   -3.5667   -0.9303 C   0  0  0  0  0  0  0  0  0  0  0  0
    4.3203   -3.5163   -0.9119 C   0  0  0  0  0  0  0  0  0  0  0  0
    5.0621   -3.4459    0.3394 C   0  0  0  0  0  0  0  0  0  0  0  0
    4.9515   -2.3327    1.2924 C   0  0  0  0  0  0  0  0  0  0  0  0
    5.2704   -1.0474    0.6969 N   0  0  0  0  0  0  0  0  0  0  0  0
    5.2106    0.0526    1.6277 C   0  0  0  0  0  0  0  0  0  0  0  0
    6.3064   -0.0050    2.6676 C   0  0  1  0  0  0  0  0  0  0  0  0
    7.6549    0.1168    2.0801 C   0  0  0  0  0  0  0  0  0  0  0  0
    8.4500   -1.0221    2.0061 C   0  0  0  0  0  0  0  0  0  0  0  0
    9.7180   -0.9656    1.4665 C   0  0  0  0  0  0  0  0  0  0  0  0
   10.1979    0.2354    0.9970 C   0  0  0  0  0  0  0  0  0  0  0  0
    9.4364    1.4100    1.0499 C   0  0  0  0  0  0  0  0  0  0  0  0
    8.1834    1.2968    1.5959 C   0  0  0  0  0  0  0  0  0  0  0  0
   10.0034    2.5997    0.5433 N   0  0  0  0  0  0  0  0  0  0  0  0
    9.5111    4.1841    0.9820 S   0  0  0  0  0  0  0  0  0  0  0  0
   10.4378    5.2086    0.3468 O   0  0  0  0  0  0  0  0  0  0  0  0
    9.6997    4.3808    2.4812 O   0  0  0  0  0  0  0  0  0  0  0  0
    7.8314    4.5036    0.5619 C   0  0  0  0  0  0  0  0  0  0  0  0
   11.4890    0.3040    0.4448 O   0  0  0  0  0  0  0  0  0  0  0  0
    6.1375    1.1097    3.5091 O   0  0  0  0  0  0  0  0  0  0  0  0
   -7.6282   -1.0256   -0.9448 H   0  0  0  0  0  0  0  0  0  0  0  0
   -9.2897   -0.3554   -3.4996 H   0  0  0  0  0  0  0  0  0  0  0  0
  -11.5876    0.3526   -3.7878 H   0  0  0  0  0  0  0  0  0  0  0  0
  -12.7250    1.5520   -1.8951 H   0  0  0  0  0  0  0  0  0  0  0  0
  -11.5519    1.9787    0.1435 H   0  0  0  0  0  0  0  0  0  0  0  0
   -7.3286    2.3669    0.2042 H   0  0  0  0  0  0  0  0  0  0  0  0
   -6.4655    2.7795    2.4733 H   0  0  0  0  0  0  0  0  0  0  0  0
  -10.7287    0.4356    1.8718 H   0  0  0  0  0  0  0  0  0  0  0  0
   -8.2155    2.1259    5.5111 H   0  0  0  0  0  0  0  0  0  0  0  0
   -4.5083    1.6194   -2.7450 H   0  0  0  0  0  0  0  0  0  0  0  0
   -3.8591   -1.2594   -3.2123 H   0  0  0  0  0  0  0  0  0  0  0  0
   -3.8804    0.1277   -4.3084 H   0  0  0  0  0  0  0  0  0  0  0  0
   -1.6889   -0.9980   -3.9492 H   0  0  0  0  0  0  0  0  0  0  0  0
   -1.6515    0.7619   -3.7464 H   0  0  0  0  0  0  0  0  0  0  0  0
   -1.5047    1.8193   -1.9121 H   0  0  0  0  0  0  0  0  0  0  0  0
   -1.3938    1.0037   -0.3306 H   0  0  0  0  0  0  0  0  0  0  0  0
   -3.6402    2.0321   -0.7165 H   0  0  0  0  0  0  0  0  0  0  0  0
   -3.5858    0.3051   -0.2405 H   0  0  0  0  0  0  0  0  0  0  0  0
   -3.0463   -1.4956   -1.2409 H   0  0  0  0  0  0  0  0  0  0  0  0
   -1.6767   -1.3061   -0.1452 H   0  0  0  0  0  0  0  0  0  0  0  0
   -1.7065   -3.5642   -1.2671 H   0  0  0  0  0  0  0  0  0  0  0  0
   -1.7123   -2.7139   -2.8886 H   0  0  0  0  0  0  0  0  0  0  0  0
    0.3615   -1.5693   -2.3466 H   0  0  0  0  0  0  0  0  0  0  0  0
    0.5951   -3.3891   -2.4234 H   0  0  0  0  0  0  0  0  0  0  0  0
    0.2709   -1.4902    0.0463 H   0  0  0  0  0  0  0  0  0  0  0  0
    0.3177   -3.2576    0.2020 H   0  0  0  0  0  0  0  0  0  0  0  0
    2.4474   -1.4735   -1.0541 H   0  0  0  0  0  0  0  0  0  0  0  0
    2.4750   -2.1351    0.6303 H   0  0  0  0  0  0  0  0  0  0  0  0
    2.4609   -3.8028   -1.9714 H   0  0  0  0  0  0  0  0  0  0  0  0
    2.5207   -4.4897   -0.3389 H   0  0  0  0  0  0  0  0  0  0  0  0
    4.5823   -2.6247   -1.6032 H   0  0  0  0  0  0  0  0  0  0  0  0
    4.6840   -4.3817   -1.5690 H   0  0  0  0  0  0  0  0  0  0  0  0
    4.9289   -4.4267    0.9133 H   0  0  0  0  0  0  0  0  0  0  0  0
    6.1765   -3.5078    0.0448 H   0  0  0  0  0  0  0  0  0  0  0  0
    5.8343   -2.5127    2.0329 H   0  0  0  0  0  0  0  0  0  0  0  0
    4.1164   -2.2725    1.9683 H   0  0  0  0  0  0  0  0  0  0  0  0
    6.1741   -1.0785    0.1767 H   0  0  0  0  0  0  0  0  0  0  0  0
    4.2168    0.1139    2.0760 H   0  0  0  0  0  0  0  0  0  0  0  0
    5.4040    0.9699    1.0283 H   0  0  0  0  0  0  0  0  0  0  0  0
    6.2453   -0.9159    3.3004 H   0  0  0  0  0  0  0  0  0  0  0  0
    8.1261   -1.9893    2.3618 H   0  0  0  0  0  0  0  0  0  0  0  0
   10.3504   -1.8452    1.4026 H   0  0  0  0  0  0  0  0  0  0  0  0
    7.5698    2.1688    1.6552 H   0  0  0  0  0  0  0  0  0  0  0  0
   10.7861    2.5118   -0.1573 H   0  0  0  0  0  0  0  0  0  0  0  0
    7.4268    3.7444   -0.1430 H   0  0  0  0  0  0  0  0  0  0  0  0
    7.1528    4.5153    1.4564 H   0  0  0  0  0  0  0  0  0  0  0  0
    7.7984    5.5037    0.0447 H   0  0  0  0  0  0  0  0  0  0  0  0
   11.6208   -0.0236   -0.5020 H   0  0  0  0  0  0  0  0  0  0  0  0
    7.0152    1.4415    3.8604 H   0  0  0  0  0  0  0  0  0  0  0  0
  1  2  2  0
  2  3  1  0
  3  4  1  0
  4  5  2  0
  5  6  1  0
  6  7  2  0
  7  8  1  0
  8  9  2  0
  9 10  1  0
 10 11  2  0
 11 12  1  0
 12 13  2  0
 13 14  1  0
 14 15  2  0
 14 16  1  0
 13 17  1  0
  2 18  1  0
 18 19  1  0
 19 20  1  0
 20 21  1  0
 21 22  1  0
 22 23  1  0
 23 24  1  0
 22 25  1  0
 25 26  1  0
 26 27  1  0
 27 28  1  0
 28 29  1  0
 29 30  1  0
 30 31  1  0
 31 32  1  0
 32 33  1  0
 33 34  1  0
 34 35  1  0
 35 36  1  0
 36 37  1  0
 37 38  2  0
 38 39  1  0
 39 40  2  0
 40 41  1  0
 41 42  2  0
 41 43  1  0
 43 44  1  0
 44 45  2  0
 44 46  2  0
 44 47  1  0
 40 48  1  0
 36 49  1  0
  9  4  1  0
 15 10  1  0
 24 19  1  0
 42 37  1  0
  3 50  1  0
  5 51  1  0
  6 52  1  0
  7 53  1  0
  8 54  1  0
 11 55  1  0
 12 56  1  0
 15 57  1  0
 17 58  1  0
 19 59  1  0
 20 60  1  0
 20 61  1  0
 21 62  1  0
 21 63  1  0
 23 64  1  0
 23 65  1  0
 24 66  1  0
 24 67  1  0
 25 68  1  0
 25 69  1  0
 26 70  1  0
 26 71  1  0
 27 72  1  0
 27 73  1  0
 28 74  1  0
 28 75  1  0
 29 76  1  0
 29 77  1  0
 30 78  1  0
 30 79  1  0
 31 80  1  0
 31 81  1  0
 32 82  1  0
 32 83  1  0
 33 84  1  0
 33 85  1  0
 34 86  1  0
 35 87  1  0
 35 88  1  0
 36 89  1  1
 38 90  1  0
 39 91  1  0
 42 92  1  0
 43 93  1  0
 47 94  1  0
 47 95  1  0
 47 96  1  0
 48 97  1  0
 49 98  1  0
M  END
>  <Ligand ID>  (1) 
LIG0004949

>  <Ligand>  (1) 
CHEMBL3219042

>  <SMILES>  (1) 
O=C(Nc1ccccc1c1ccc(c(c1)Cl)O)OC1CCN(CC1)CCCCCCCCCNC[C@@H](c1ccc(c(c1)NS(=O)(=O)C)O)O

>  <CID>  (1) 
24764458.0

>  <ChEMBL ID>  (1) 
nan

>  <InChiKey>  (1) 
NLEWMFKEAMXROY-DHUJRADRSA-N

>  <InChi>  (1) 
InChI=1S/C36H49ClN4O7S/c1-49(46,47)40-32-24-27(14-16-34(32)43)35(44)25-38-19-9-5-3-2-4-6-10-20-41-21-17-28(18-22-41)48-36(45)39-31-12-8-7-11-29(31)26-13-15-33(42)30(37)23-26/h7-8,11-16,23-24,28,35,38,40,42-44H,2-6,9-10,17-22,25H2,1H3,(H,39,45)/t35-/m0/s1

>  <IUPAC Name>  (1) 
[1-[9-[[(2R)-2-hydroxy-2-[4-hydroxy-3-(methanesulfonamido)phenyl]ethyl]amino]nonyl]piperidin-4-yl] N-[2-(3-chloro-4-hydroxyphenyl)phenyl]carbamate

$$$$
