
     RDKit          3D

 59 62  0  0  0  0  0  0  0  0999 V2000
   -7.0285   -1.6923   -0.8754 C   0  0  0  0  0  0  0  0  0  0  0  0
   -5.6753   -2.3373   -0.6711 C   0  0  0  0  0  0  0  0  0  0  0  0
   -4.8425   -1.3558   -0.0444 O   0  0  0  0  0  0  0  0  0  0  0  0
   -4.5706   -0.1408   -0.6510 C   0  0  0  0  0  0  0  0  0  0  0  0
   -5.0303    0.1773   -1.7768 O   0  0  0  0  0  0  0  0  0  0  0  0
   -3.7455    0.7774    0.0194 N   0  0  0  0  0  0  0  0  0  0  0  0
   -3.3114    2.1122   -0.4004 C   0  0  0  0  0  0  0  0  0  0  0  0
   -3.7391    2.8950    0.8521 C   0  0  0  0  0  0  0  0  0  0  0  0
   -3.0615    2.0169    1.9144 C   0  0  0  0  0  0  0  0  0  0  0  0
   -3.1030    0.6178    1.3347 C   0  0  0  0  0  0  0  0  0  0  0  0
   -1.6892    0.1775    1.0021 C   0  0  0  0  0  0  0  0  0  0  0  0
   -1.1853    0.8581   -0.2501 C   0  0  0  0  0  0  0  0  0  0  0  0
   -1.8021    2.2204   -0.4721 C   0  0  0  0  0  0  0  0  0  0  0  0
    0.2291    0.8936   -0.2105 N   0  0  0  0  0  0  0  0  0  0  0  0
    0.9277    1.5393   -1.2600 C   0  0  0  0  0  0  0  0  0  0  0  0
    1.4129    0.6495   -2.3628 C   0  0  0  0  0  0  0  0  0  0  0  0
    1.3188   -0.7846   -1.9495 C   0  0  0  0  0  0  0  0  0  0  0  0
    1.8126   -0.9808   -0.5556 C   0  0  2  0  0  0  0  0  0  0  0  0
    0.8990   -0.1989    0.3841 C   0  0  0  0  0  0  0  0  0  0  0  0
    3.1854   -0.5933   -0.3370 N   0  0  0  0  0  0  0  0  0  0  0  0
    4.0962   -1.5740    0.1196 C   0  0  0  0  0  0  0  0  0  0  0  0
    3.7102   -2.7745    0.3329 O   0  0  0  0  0  0  0  0  0  0  0  0
    5.5069   -1.3181    0.3799 C   0  0  0  0  0  0  0  0  0  0  0  0
    6.3034   -2.3517    0.8237 C   0  0  0  0  0  0  0  0  0  0  0  0
    7.6601   -2.1297    1.0801 C   0  0  0  0  0  0  0  0  0  0  0  0
    8.2428   -0.8924    0.9026 C   0  0  0  0  0  0  0  0  0  0  0  0
    7.4372    0.1385    0.4574 C   0  0  0  0  0  0  0  0  0  0  0  0
    6.1043   -0.0894    0.2080 C   0  0  0  0  0  0  0  0  0  0  0  0
   -7.1815   -0.9613   -0.0557 H   0  0  0  0  0  0  0  0  0  0  0  0
   -7.8436   -2.4435   -0.9206 H   0  0  0  0  0  0  0  0  0  0  0  0
   -6.9777   -1.1129   -1.8198 H   0  0  0  0  0  0  0  0  0  0  0  0
   -5.8408   -3.2001   -0.0029 H   0  0  0  0  0  0  0  0  0  0  0  0
   -5.2409   -2.7069   -1.6152 H   0  0  0  0  0  0  0  0  0  0  0  0
   -3.8344    2.4719   -1.2905 H   0  0  0  0  0  0  0  0  0  0  0  0
   -4.8239    2.9222    0.9795 H   0  0  0  0  0  0  0  0  0  0  0  0
   -3.2290    3.8606    0.8296 H   0  0  0  0  0  0  0  0  0  0  0  0
   -2.0072    2.3680    2.0377 H   0  0  0  0  0  0  0  0  0  0  0  0
   -3.5771    2.0590    2.8860 H   0  0  0  0  0  0  0  0  0  0  0  0
   -3.6472   -0.0963    1.9497 H   0  0  0  0  0  0  0  0  0  0  0  0
   -1.7773   -0.9173    0.7925 H   0  0  0  0  0  0  0  0  0  0  0  0
   -1.0124    0.2885    1.8638 H   0  0  0  0  0  0  0  0  0  0  0  0
   -1.5837    0.2378   -1.1117 H   0  0  0  0  0  0  0  0  0  0  0  0
   -1.5921    2.5137   -1.5250 H   0  0  0  0  0  0  0  0  0  0  0  0
   -1.4069    2.9909    0.1890 H   0  0  0  0  0  0  0  0  0  0  0  0
    1.8511    1.9934   -0.7824 H   0  0  0  0  0  0  0  0  0  0  0  0
    0.3874    2.3836   -1.6703 H   0  0  0  0  0  0  0  0  0  0  0  0
    2.4396    0.9316   -2.6746 H   0  0  0  0  0  0  0  0  0  0  0  0
    0.8042    0.7581   -3.2979 H   0  0  0  0  0  0  0  0  0  0  0  0
    1.7854   -1.4779   -2.6821 H   0  0  0  0  0  0  0  0  0  0  0  0
    0.2385   -1.0685   -1.9460 H   0  0  0  0  0  0  0  0  0  0  0  0
    1.7271   -2.0661   -0.3101 H   0  0  0  0  0  0  0  0  0  0  0  0
    1.5129    0.1660    1.2680 H   0  0  0  0  0  0  0  0  0  0  0  0
    0.2029   -0.9198    0.8236 H   0  0  0  0  0  0  0  0  0  0  0  0
    3.5629    0.3657   -0.4923 H   0  0  0  0  0  0  0  0  0  0  0  0
    5.9506   -3.3565    0.9956 H   0  0  0  0  0  0  0  0  0  0  0  0
    8.3087   -2.9378    1.4330 H   0  0  0  0  0  0  0  0  0  0  0  0
    9.3008   -0.7617    1.1133 H   0  0  0  0  0  0  0  0  0  0  0  0
    7.9182    1.1043    0.3249 H   0  0  0  0  0  0  0  0  0  0  0  0
    5.5227    0.7514   -0.1377 H   0  0  0  0  0  0  0  0  0  0  0  0
  1  2  1  0
  2  3  1  0
  3  4  1  0
  4  5  2  0
  4  6  1  0
  6  7  1  0
  7  8  1  0
  8  9  1  0
  9 10  1  0
 10 11  1  0
 11 12  1  0
 12 13  1  0
 12 14  1  0
 14 15  1  0
 15 16  1  0
 16 17  1  0
 17 18  1  0
 18 19  1  0
 18 20  1  0
 20 21  1  0
 21 22  2  0
 21 23  1  0
 23 24  2  0
 24 25  1  0
 25 26  2  0
 26 27  1  0
 27 28  2  0
 10  6  1  0
 19 14  1  0
 28 23  1  0
 13  7  1  0
  1 29  1  0
  1 30  1  0
  1 31  1  0
  2 32  1  0
  2 33  1  0
  7 34  1  0
  8 35  1  0
  8 36  1  0
  9 37  1  0
  9 38  1  0
 10 39  1  0
 11 40  1  0
 11 41  1  0
 12 42  1  0
 13 43  1  0
 13 44  1  0
 15 45  1  0
 15 46  1  0
 16 47  1  0
 16 48  1  0
 17 49  1  0
 17 50  1  0
 18 51  1  1
 19 52  1  0
 19 53  1  0
 20 54  1  0
 24 55  1  0
 25 56  1  0
 26 57  1  0
 27 58  1  0
 28 59  1  0
M  END
>  <Ligand ID>  (1) 
LIG0004459

>  <Ligand>  (1) 
CHEMBL2024332

>  <SMILES>  (1) 
CCOC(=O)N1C2CCC1CC(C2)N1CCC[C@H](C1)NC(=O)c1ccccc1

>  <CID>  (1) 
53385783.0

>  <ChEMBL ID>  (1) 
nan

>  <InChiKey>  (1) 
OHFJWWZZUQRDMV-NEYBNPPJSA-N

>  <InChi>  (1) 
InChI=1S/C22H31N3O3/c1-2-28-22(27)25-18-10-11-19(25)14-20(13-18)24-12-6-9-17(15-24)23-21(26)16-7-4-3-5-8-16/h3-5,7-8,17-20H,2,6,9-15H2,1H3,(H,23,26)/t17-,18?,19?,20?/m1/s1

>  <IUPAC Name>  (1) 
ethyl 3-[(3R)-3-benzamidopiperidin-1-yl]-8-azabicyclo[3.2.1]octane-8-carboxylate

$$$$
