
     RDKit          3D

 56 60  0  0  0  0  0  0  0  0999 V2000
   -6.7064   -3.3159   -2.5147 Cl  0  0  0  0  0  0  0  0  0  0  0  0
   -5.4741   -2.2321   -1.9014 C   0  0  0  0  0  0  0  0  0  0  0  0
   -4.3977   -1.8173   -2.6707 C   0  0  0  0  0  0  0  0  0  0  0  0
   -3.4341   -0.9638   -2.1756 C   0  0  0  0  0  0  0  0  0  0  0  0
   -3.5634   -0.5141   -0.8567 C   0  0  0  0  0  0  0  0  0  0  0  0
   -4.6387   -0.9324   -0.0982 C   0  0  0  0  0  0  0  0  0  0  0  0
   -5.6113   -1.7944   -0.5991 C   0  0  0  0  0  0  0  0  0  0  0  0
   -2.5681    0.4099   -0.2462 C   0  0  0  0  0  0  0  0  0  0  0  0
   -1.4776   -0.4063    0.3119 C   0  0  0  0  0  0  0  0  0  0  0  0
   -1.7259   -1.3466    1.2908 C   0  0  0  0  0  0  0  0  0  0  0  0
   -0.7119   -2.1100    1.8308 C   0  0  0  0  0  0  0  0  0  0  0  0
    0.5782   -1.9241    1.3767 C   0  0  0  0  0  0  0  0  0  0  0  0
    0.8834   -0.9904    0.3919 C   0  0  0  0  0  0  0  0  0  0  0  0
   -0.1627   -0.2551   -0.1134 C   0  0  0  0  0  0  0  0  0  0  0  0
    2.1844   -0.8291   -0.0393 C   0  0  0  0  0  0  0  0  0  0  0  0
    2.5165    0.1315   -1.0266 N   0  0  0  0  0  0  0  0  0  0  0  0
    3.8542    0.4105   -1.4413 C   0  0  0  0  0  0  0  0  0  0  0  0
    4.1423    0.4904   -2.7952 C   0  0  0  0  0  0  0  0  0  0  0  0
    5.4060    0.7830   -3.2622 C   0  0  0  0  0  0  0  0  0  0  0  0
    6.4357    1.0081   -2.3907 C   0  0  0  0  0  0  0  0  0  0  0  0
    6.1493    0.9289   -1.0380 C   0  0  0  0  0  0  0  0  0  0  0  0
    4.8881    0.6372   -0.5626 C   0  0  0  0  0  0  0  0  0  0  0  0
    7.2620    1.1717   -0.0728 C   0  0  0  0  0  0  0  0  0  0  0  0
    8.4815    1.0788   -0.7025 F   0  0  0  0  0  0  0  0  0  0  0  0
    7.1822    2.4482    0.4735 F   0  0  0  0  0  0  0  0  0  0  0  0
    7.2260    0.2010    0.9104 F   0  0  0  0  0  0  0  0  0  0  0  0
    3.1337   -1.6335    0.5548 C   0  0  0  0  0  0  0  0  0  0  0  0
    2.7970   -2.5634    1.5428 C   0  0  0  0  0  0  0  0  0  0  0  0
    3.6664   -3.2746    2.0622 O   0  0  0  0  0  0  0  0  0  0  0  0
    1.5250   -2.7030    1.9469 N   0  0  0  0  0  0  0  0  0  0  0  0
   -3.1296    1.4295    0.6242 C   0  0  0  0  0  0  0  0  0  0  0  0
   -3.1074    1.4435    1.9970 C   0  0  0  0  0  0  0  0  0  0  0  0
   -3.6728    2.4491    2.7589 C   0  0  0  0  0  0  0  0  0  0  0  0
   -4.3063    3.5205    2.1465 C   0  0  0  0  0  0  0  0  0  0  0  0
   -4.3396    3.5259    0.7669 C   0  0  0  0  0  0  0  0  0  0  0  0
   -3.7727    2.5181    0.0189 C   0  0  0  0  0  0  0  0  0  0  0  0
   -5.0221    4.7915    3.0812 Cl  0  0  0  0  0  0  0  0  0  0  0  0
   -4.3352   -2.1949   -3.7022 H   0  0  0  0  0  0  0  0  0  0  0  0
   -2.5898   -0.6354   -2.7717 H   0  0  0  0  0  0  0  0  0  0  0  0
   -4.7973   -0.6178    0.9328 H   0  0  0  0  0  0  0  0  0  0  0  0
   -6.4531   -2.1073    0.0309 H   0  0  0  0  0  0  0  0  0  0  0  0
   -2.1307    0.9653   -1.1361 H   0  0  0  0  0  0  0  0  0  0  0  0
   -2.7244   -1.5479    1.6851 H   0  0  0  0  0  0  0  0  0  0  0  0
   -0.9299   -2.8498    2.6054 H   0  0  0  0  0  0  0  0  0  0  0  0
   -0.0087    0.4899   -0.8796 H   0  0  0  0  0  0  0  0  0  0  0  0
    1.7883    0.7115   -1.5303 H   0  0  0  0  0  0  0  0  0  0  0  0
    3.3446    0.3165   -3.5184 H   0  0  0  0  0  0  0  0  0  0  0  0
    5.5987    0.8384   -4.3299 H   0  0  0  0  0  0  0  0  0  0  0  0
    7.4482    1.2418   -2.6968 H   0  0  0  0  0  0  0  0  0  0  0  0
    4.7598    0.6146    0.4995 H   0  0  0  0  0  0  0  0  0  0  0  0
    4.1628   -1.5999    0.2847 H   0  0  0  0  0  0  0  0  0  0  0  0
    1.3054   -3.4078    2.6881 H   0  0  0  0  0  0  0  0  0  0  0  0
   -2.6250    0.6408    2.5296 H   0  0  0  0  0  0  0  0  0  0  0  0
   -3.6287    2.4137    3.8482 H   0  0  0  0  0  0  0  0  0  0  0  0
   -4.8365    4.3672    0.2900 H   0  0  0  0  0  0  0  0  0  0  0  0
   -3.8378    2.5897   -1.0708 H   0  0  0  0  0  0  0  0  0  0  0  0
  1  2  1  0
  2  3  2  0
  3  4  1  0
  4  5  2  0
  5  6  1  0
  6  7  2  0
  5  8  1  0
  8  9  1  0
  9 10  2  0
 10 11  1  0
 11 12  2  0
 12 13  1  0
 13 14  2  0
 13 15  1  0
 15 16  1  0
 16 17  1  0
 17 18  2  0
 18 19  1  0
 19 20  2  0
 20 21  1  0
 21 22  2  0
 21 23  1  0
 23 24  1  0
 23 25  1  0
 23 26  1  0
 15 27  2  0
 27 28  1  0
 28 29  2  0
 28 30  1  0
  8 31  1  0
 31 32  2  0
 32 33  1  0
 33 34  2  0
 34 35  1  0
 35 36  2  0
 34 37  1  0
  7  2  1  0
 14  9  1  0
 22 17  1  0
 36 31  1  0
 30 12  1  0
  3 38  1  0
  4 39  1  0
  6 40  1  0
  7 41  1  0
  8 42  1  0
 10 43  1  0
 11 44  1  0
 14 45  1  0
 16 46  1  0
 18 47  1  0
 19 48  1  0
 20 49  1  0
 22 50  1  0
 27 51  1  0
 30 52  1  0
 32 53  1  0
 33 54  1  0
 35 55  1  0
 36 56  1  0
M  END
>  <Ligand ID>  (1) 
LIG0005864

>  <Ligand>  (1) 
CHEMBL3913525

>  <SMILES>  (1) 
Clc1ccc(cc1)C(c1ccc2c(c1)c(Nc1cccc(c1)C(F)(F)F)cc(=O)[nH]2)c1ccc(cc1)Cl

>  <CID>  (1) 
118329978.0

>  <ChEMBL ID>  (1) 
nan

>  <InChiKey>  (1) 
NIJKIUUJXYMQLS-UHFFFAOYSA-N

>  <InChi>  (1) 
InChI=1S/C29H19Cl2F3N2O/c30-21-9-4-17(5-10-21)28(18-6-11-22(31)12-7-18)19-8-13-25-24(14-19)26(16-27(37)36-25)35-23-3-1-2-20(15-23)29(32,33)34/h1-16,28H,(H2,35,36,37)

>  <IUPAC Name>  (1) 
6-[bis(4-chlorophenyl)methyl]-4-[3-(trifluoromethyl)anilino]-1H-quinolin-2-one

$$$$
