
     RDKit          3D

 65 69  0  0  0  0  0  0  0  0999 V2000
    6.3819    4.3536    1.6986 C   0  0  0  0  0  0  0  0  0  0  0  0
    5.1864    3.6948    1.3469 O   0  0  0  0  0  0  0  0  0  0  0  0
    5.1682    2.6010    0.5013 C   0  0  0  0  0  0  0  0  0  0  0  0
    6.3468    2.1041   -0.0405 C   0  0  0  0  0  0  0  0  0  0  0  0
    6.3484    1.0216   -0.8800 C   0  0  0  0  0  0  0  0  0  0  0  0
    5.1412    0.4221   -1.1843 C   0  0  0  0  0  0  0  0  0  0  0  0
    3.9747    0.9204   -0.6430 C   0  0  0  0  0  0  0  0  0  0  0  0
    3.9507    2.0139    0.2080 C   0  0  0  0  0  0  0  0  0  0  0  0
    2.7179    0.2705   -0.9808 C   0  0  0  0  0  0  0  0  0  0  0  0
    1.7838    1.0221   -1.6630 C   0  0  0  0  0  0  0  0  0  0  0  0
    0.5856    0.4089   -1.9875 C   0  0  0  0  0  0  0  0  0  0  0  0
   -0.2493    1.1128   -2.6106 O   0  0  0  0  0  0  0  0  0  0  0  0
    0.3037   -0.8645   -1.6690 N   0  0  0  0  0  0  0  0  0  0  0  0
    1.2174   -1.5517   -1.0188 N   0  0  0  0  0  0  0  0  0  0  0  0
    2.4249   -1.0312   -0.6581 C   0  0  0  0  0  0  0  0  0  0  0  0
    3.4081   -1.8332    0.0627 C   0  0  0  0  0  0  0  0  0  0  0  0
    3.8329   -1.4920    1.3396 C   0  0  0  0  0  0  0  0  0  0  0  0
    4.7715   -2.2688    2.0127 C   0  0  0  0  0  0  0  0  0  0  0  0
    5.3036   -3.4044    1.4188 C   0  0  0  0  0  0  0  0  0  0  0  0
    4.8755   -3.7278    0.1609 C   0  0  0  0  0  0  0  0  0  0  0  0
    3.9465   -2.9692   -0.5200 C   0  0  0  0  0  0  0  0  0  0  0  0
   -0.9420   -1.5223   -1.9845 C   0  0  0  0  0  0  0  0  0  0  0  0
   -1.9785   -1.4253   -0.8859 C   0  0  0  0  0  0  0  0  0  0  0  0
   -2.2842    0.0048   -0.6200 C   0  0  0  0  0  0  0  0  0  0  0  0
   -3.3934    0.1582    0.4353 C   0  0  0  0  0  0  0  0  0  0  0  0
   -4.5630   -0.5460   -0.1406 C   0  0  0  0  0  0  0  0  0  0  0  0
   -4.4032   -1.6525   -0.9249 C   0  0  0  0  0  0  0  0  0  0  0  0
   -3.1257   -2.2853   -1.2950 C   0  0  0  0  0  0  0  0  0  0  0  0
   -5.5630   -2.2494   -1.4271 C   0  0  0  0  0  0  0  0  0  0  0  0
   -6.8191   -1.7611   -1.1563 C   0  0  0  0  0  0  0  0  0  0  0  0
   -6.9312   -0.6315   -0.3523 C   0  0  0  0  0  0  0  0  0  0  0  0
   -5.8148   -0.0054    0.1681 C   0  0  0  0  0  0  0  0  0  0  0  0
   -5.9111    1.1258    0.9744 O   0  0  0  0  0  0  0  0  0  0  0  0
   -7.1958    1.6397    1.2616 C   0  0  0  0  0  0  0  0  0  0  0  0
   -7.0724    2.8513    2.1410 C   0  0  0  0  0  0  0  0  0  0  0  0
   -5.9595    3.2679    2.5135 O   0  0  0  0  0  0  0  0  0  0  0  0
   -8.2687    3.4713    2.5087 O   0  0  0  0  0  0  0  0  0  0  0  0
    7.2234    3.6597    1.9282 H   0  0  0  0  0  0  0  0  0  0  0  0
    6.6808    5.1000    0.9309 H   0  0  0  0  0  0  0  0  0  0  0  0
    6.2080    4.9587    2.6265 H   0  0  0  0  0  0  0  0  0  0  0  0
    7.2868    2.5778    0.2018 H   0  0  0  0  0  0  0  0  0  0  0  0
    7.2770    0.6485   -1.2928 H   0  0  0  0  0  0  0  0  0  0  0  0
    5.1230   -0.4346   -1.8462 H   0  0  0  0  0  0  0  0  0  0  0  0
    3.0121    2.3816    0.6177 H   0  0  0  0  0  0  0  0  0  0  0  0
    1.9615    2.0664   -1.9478 H   0  0  0  0  0  0  0  0  0  0  0  0
    3.4275   -0.6045    1.8241 H   0  0  0  0  0  0  0  0  0  0  0  0
    5.1016   -2.0067    3.0010 H   0  0  0  0  0  0  0  0  0  0  0  0
    6.0299   -3.9828    1.9716 H   0  0  0  0  0  0  0  0  0  0  0  0
    5.2917   -4.6204   -0.3092 H   0  0  0  0  0  0  0  0  0  0  0  0
    3.6562   -3.2927   -1.5199 H   0  0  0  0  0  0  0  0  0  0  0  0
   -0.7615   -2.6179   -2.1254 H   0  0  0  0  0  0  0  0  0  0  0  0
   -1.3916   -1.1855   -2.9490 H   0  0  0  0  0  0  0  0  0  0  0  0
   -1.5342   -1.8841    0.0273 H   0  0  0  0  0  0  0  0  0  0  0  0
   -1.3473    0.4738   -0.2151 H   0  0  0  0  0  0  0  0  0  0  0  0
   -2.6805    0.5090   -1.5160 H   0  0  0  0  0  0  0  0  0  0  0  0
   -3.0408   -0.3000    1.3787 H   0  0  0  0  0  0  0  0  0  0  0  0
   -3.5447    1.2573    0.5369 H   0  0  0  0  0  0  0  0  0  0  0  0
   -3.1025   -3.2646   -0.7542 H   0  0  0  0  0  0  0  0  0  0  0  0
   -3.0868   -2.5101   -2.3934 H   0  0  0  0  0  0  0  0  0  0  0  0
   -5.5093   -3.1309   -2.0567 H   0  0  0  0  0  0  0  0  0  0  0  0
   -7.7252   -2.2155   -1.5401 H   0  0  0  0  0  0  0  0  0  0  0  0
   -7.9279   -0.2235   -0.1233 H   0  0  0  0  0  0  0  0  0  0  0  0
   -7.8619    0.9264    1.7747 H   0  0  0  0  0  0  0  0  0  0  0  0
   -7.7191    1.9928    0.3494 H   0  0  0  0  0  0  0  0  0  0  0  0
   -8.2411    4.4782    2.7353 H   0  0  0  0  0  0  0  0  0  0  0  0
  1  2  1  0
  2  3  1  0
  3  4  2  0
  4  5  1  0
  5  6  2  0
  6  7  1  0
  7  8  2  0
  7  9  1  0
  9 10  2  0
 10 11  1  0
 11 12  2  0
 11 13  1  0
 13 14  1  0
 14 15  2  0
 15 16  1  0
 16 17  2  0
 17 18  1  0
 18 19  2  0
 19 20  1  0
 20 21  2  0
 13 22  1  0
 22 23  1  0
 23 24  1  0
 24 25  1  0
 25 26  1  0
 26 27  2  0
 27 28  1  0
 27 29  1  0
 29 30  2  0
 30 31  1  0
 31 32  2  0
 32 33  1  0
 33 34  1  0
 34 35  1  0
 35 36  2  0
 35 37  1  0
  8  3  1  0
 15  9  1  0
 21 16  1  0
 28 23  1  0
 32 26  1  0
  1 38  1  0
  1 39  1  0
  1 40  1  0
  4 41  1  0
  5 42  1  0
  6 43  1  0
  8 44  1  0
 10 45  1  0
 17 46  1  0
 18 47  1  0
 19 48  1  0
 20 49  1  0
 21 50  1  0
 22 51  1  0
 22 52  1  0
 23 53  1  0
 24 54  1  0
 24 55  1  0
 25 56  1  0
 25 57  1  0
 28 58  1  0
 28 59  1  0
 29 60  1  0
 30 61  1  0
 31 62  1  0
 34 63  1  0
 34 64  1  0
 37 65  1  0
M  END
>  <Ligand ID>  (1) 
LIG0004835

>  <Ligand>  (1) 
CHEMBL3398208

>  <SMILES>  (1) 
COc1cccc(c1)c1cc(=O)n(nc1c1ccccc1)CC1CCc2c(C1)cccc2OCC(=O)O

>  <CID>  (1) 
118727287.0

>  <ChEMBL ID>  (1) 
nan

>  <InChiKey>  (1) 
GXLKSBLWRBXNHA-UHFFFAOYSA-N

>  <InChi>  (1) 
InChI=1S/C30H28N2O5/c1-36-24-11-5-9-23(16-24)26-17-28(33)32(31-30(26)21-7-3-2-4-8-21)18-20-13-14-25-22(15-20)10-6-12-27(25)37-19-29(34)35/h2-12,16-17,20H,13-15,18-19H2,1H3,(H,34,35)

>  <IUPAC Name>  (1) 
2-[[6-[[4-(3-methoxyphenyl)-6-oxo-3-phenylpyridazin-1-yl]methyl]-5,6,7,8-tetrahydronaphthalen-1-yl]oxy]acetic acid

$$$$
