
     RDKit          3D

 50 54  0  0  0  0  0  0  0  0999 V2000
    5.4581    0.1290   -0.4201 C   0  0  0  0  0  0  0  0  0  0  0  0
    4.2632    0.5907    0.1341 O   0  0  0  0  0  0  0  0  0  0  0  0
    3.0425   -0.0484   -0.0045 C   0  0  0  0  0  0  0  0  0  0  0  0
    2.8797   -1.2259   -0.7158 C   0  0  0  0  0  0  0  0  0  0  0  0
    1.6316   -1.8445   -0.8354 C   0  0  0  0  0  0  0  0  0  0  0  0
    1.4513   -3.1081   -1.5976 C   0  0  0  0  0  0  0  0  0  0  0  0
    0.5489   -1.2589   -0.2271 C   0  0  0  0  0  0  0  0  0  0  0  0
    0.7433   -0.1034    0.4636 C   0  0  0  0  0  0  0  0  0  0  0  0
    1.9352    0.5297    0.6044 C   0  0  0  0  0  0  0  0  0  0  0  0
    1.7139    1.6662    1.3731 O   0  0  0  0  0  0  0  0  0  0  0  0
    0.2981    1.9423    1.3750 C   0  0  2  0  0  0  0  0  0  0  0  0
   -0.3591    0.6128    1.1611 C   0  0  2  0  0  0  0  0  0  0  0  0
   -0.6902   -0.1080    2.4264 C   0  0  0  0  0  0  0  0  0  0  0  0
   -1.9505   -0.8799    2.4581 C   0  0  0  0  0  0  0  0  0  0  0  0
   -2.6233   -1.1407    1.2361 N   0  0  0  0  0  0  0  0  0  0  0  0
   -1.8941   -0.8428    0.0385 C   0  0  2  0  0  0  0  0  0  0  0  0
   -0.8238   -1.8195   -0.2856 C   0  0  0  0  0  0  0  0  0  0  0  0
   -1.4751    0.5936    0.1691 C   0  0  2  0  0  0  0  0  0  0  0  0
   -0.9673    1.2332   -1.0778 C   0  0  0  0  0  0  0  0  0  0  0  0
   -0.7534    2.6930   -0.8099 C   0  0  2  0  0  0  0  0  0  0  0  0
   -0.0945    3.0350    0.4726 C   0  0  1  0  0  0  0  0  0  0  0  0
   -0.8620    3.9670    1.1647 F   0  0  0  0  0  0  0  0  0  0  0  0
   -2.1245    3.3636   -0.8860 C   0  0  0  0  0  0  0  0  0  0  0  0
   -3.3964   -2.3348    1.2186 C   0  0  0  0  0  0  0  0  0  0  0  0
    5.2982   -0.2839   -1.4458 H   0  0  0  0  0  0  0  0  0  0  0  0
    6.2006    0.9319   -0.4650 H   0  0  0  0  0  0  0  0  0  0  0  0
    5.8820   -0.6796    0.2166 H   0  0  0  0  0  0  0  0  0  0  0  0
    3.7431   -1.6823   -1.1941 H   0  0  0  0  0  0  0  0  0  0  0  0
    0.7086   -3.7744   -1.0724 H   0  0  0  0  0  0  0  0  0  0  0  0
    1.1714   -2.9517   -2.6473 H   0  0  0  0  0  0  0  0  0  0  0  0
    2.3982   -3.7038   -1.5769 H   0  0  0  0  0  0  0  0  0  0  0  0
    0.0953    2.2261    2.4287 H   0  0  0  0  0  0  0  0  0  0  0  0
   -0.6814    0.6887    3.2288 H   0  0  0  0  0  0  0  0  0  0  0  0
    0.1707   -0.7505    2.7082 H   0  0  0  0  0  0  0  0  0  0  0  0
   -1.7779   -1.8921    2.9308 H   0  0  0  0  0  0  0  0  0  0  0  0
   -2.6733   -0.3776    3.1381 H   0  0  0  0  0  0  0  0  0  0  0  0
   -2.6417   -0.8639   -0.7825 H   0  0  0  0  0  0  0  0  0  0  0  0
   -0.9619   -2.2756   -1.2863 H   0  0  0  0  0  0  0  0  0  0  0  0
   -0.8804   -2.6610    0.4316 H   0  0  0  0  0  0  0  0  0  0  0  0
   -2.3311    1.1504    0.5472 H   0  0  0  0  0  0  0  0  0  0  0  0
   -0.0675    0.7621   -1.4960 H   0  0  0  0  0  0  0  0  0  0  0  0
   -1.7629    1.1474   -1.8702 H   0  0  0  0  0  0  0  0  0  0  0  0
   -0.2092    3.0961   -1.7063 H   0  0  0  0  0  0  0  0  0  0  0  0
    0.8451    3.6093    0.2184 H   0  0  0  0  0  0  0  0  0  0  0  0
   -2.0648    4.4112   -1.2461 H   0  0  0  0  0  0  0  0  0  0  0  0
   -2.5686    3.4418    0.1478 H   0  0  0  0  0  0  0  0  0  0  0  0
   -2.8589    2.7665   -1.4601 H   0  0  0  0  0  0  0  0  0  0  0  0
   -3.4300   -2.8594    0.2520 H   0  0  0  0  0  0  0  0  0  0  0  0
   -3.0921   -3.0528    2.0130 H   0  0  0  0  0  0  0  0  0  0  0  0
   -4.4635   -2.0639    1.4610 H   0  0  0  0  0  0  0  0  0  0  0  0
  1  2  1  0
  2  3  1  0
  3  4  2  0
  4  5  1  0
  5  6  1  0
  5  7  2  0
  7  8  1  0
  8  9  2  0
  9 10  1  0
 10 11  1  0
 11 12  1  0
 12 13  1  1
 13 14  1  0
 14 15  1  0
 15 16  1  0
 16 17  1  0
 16 18  1  0
 18 19  1  0
 19 20  1  0
 20 21  1  0
 21 22  1  0
 20 23  1  0
 15 24  1  0
  9  3  1  0
 21 11  1  0
 17  7  1  0
 12  8  1  0
 18 12  1  0
  1 25  1  0
  1 26  1  0
  1 27  1  0
  4 28  1  0
  6 29  1  0
  6 30  1  0
  6 31  1  0
 11 32  1  1
 13 33  1  0
 13 34  1  0
 14 35  1  0
 14 36  1  0
 16 37  1  6
 17 38  1  0
 17 39  1  0
 18 40  1  1
 19 41  1  0
 19 42  1  0
 20 43  1  6
 21 44  1  6
 23 45  1  0
 23 46  1  0
 23 47  1  0
 24 48  1  0
 24 49  1  0
 24 50  1  0
M  END
>  <Ligand ID>  (1) 
LIG0000796

>  <Ligand>  (1) 
CHEMBL2418745

>  <SMILES>  (1) 
COc1cc(C)c2c3c1O[C@@H]1[C@@]43CCN([C@H](C2)[C@@H]4C[C@H]([C@H]1F)C)C

>  <CID>  (1) 
73352234.0

>  <ChEMBL ID>  (1) 
nan

>  <InChiKey>  (1) 
WPANEQFBKQNEAE-AOXJFMIHSA-N

>  <InChi>  (1) 
InChI=1S/C20H26FNO2/c1-10-8-15(23-4)18-16-12(10)9-14-13-7-11(2)17(21)19(24-18)20(13,16)5-6-22(14)3/h8,11,13-14,17,19H,5-7,9H2,1-4H3/t11-,13+,14-,17-,19+,20+/m1/s1

>  <IUPAC Name>  (1) 
(4R,4aR,6R,7R,7aR,12bS)-7-fluoro-9-methoxy-3,6,11-trimethyl-2,4,4a,5,6,7,7a,13-octahydro-1H-4,12-methanobenzofuro[3,2-e]isoquinoline

$$$$
