
     RDKit          3D

 59 62  0  0  0  0  0  0  0  0999 V2000
   -1.2322    7.9059   -0.1144 C   0  0  0  0  0  0  0  0  0  0  0  0
   -0.2646    7.0786   -0.7385 O   0  0  0  0  0  0  0  0  0  0  0  0
   -0.1871    5.7231   -0.5298 C   0  0  0  0  0  0  0  0  0  0  0  0
    0.8001    5.0269   -1.1961 C   0  0  0  0  0  0  0  0  0  0  0  0
    0.9175    3.6618   -1.0180 C   0  0  0  0  0  0  0  0  0  0  0  0
    0.0861    2.9381   -0.1939 C   0  0  0  0  0  0  0  0  0  0  0  0
   -0.9005    3.6303    0.4728 C   0  0  0  0  0  0  0  0  0  0  0  0
   -1.0286    5.0117    0.3001 C   0  0  0  0  0  0  0  0  0  0  0  0
    0.1961    1.4998    0.0052 C   0  0  0  0  0  0  0  0  0  0  0  0
    1.1453    0.7151   -0.6119 C   0  0  0  0  0  0  0  0  0  0  0  0
    1.2236   -0.6647   -0.3984 C   0  0  0  0  0  0  0  0  0  0  0  0
    2.2837   -1.4224   -1.1092 C   0  0  0  0  0  0  0  0  0  0  0  0
    3.4292   -1.7914   -0.2489 C   0  0  0  0  0  0  0  0  0  0  0  0
    4.4770   -0.8991   -0.0910 C   0  0  0  0  0  0  0  0  0  0  0  0
    5.5662   -1.2148    0.7044 C   0  0  0  0  0  0  0  0  0  0  0  0
    5.6689   -2.4138    1.3731 C   0  0  0  0  0  0  0  0  0  0  0  0
    4.6206   -3.3122    1.2180 C   0  0  0  0  0  0  0  0  0  0  0  0
    3.5363   -2.9896    0.4219 C   0  0  0  0  0  0  0  0  0  0  0  0
    4.6991   -4.5213    1.8778 O   0  0  0  0  0  0  0  0  0  0  0  0
    5.8039   -4.8299    2.6786 C   0  0  0  0  0  0  0  0  0  0  0  0
    0.3154   -1.2457    0.4596 C   0  0  0  0  0  0  0  0  0  0  0  0
    0.3518   -2.4714    0.6759 O   0  0  0  0  0  0  0  0  0  0  0  0
   -0.6031   -0.4549    1.0504 N   0  0  0  0  0  0  0  0  0  0  0  0
   -0.6616    0.8494    0.8360 N   0  0  0  0  0  0  0  0  0  0  0  0
   -1.5671   -1.0247    1.9523 C   0  0  0  0  0  0  0  0  0  0  0  0
   -2.8160   -1.4732    1.3075 C   0  0  0  0  0  0  0  0  0  0  0  0
   -3.7220   -1.9870    2.0255 O   0  0  0  0  0  0  0  0  0  0  0  0
   -3.0804   -1.3688   -0.0824 N   0  0  0  0  0  0  0  0  0  0  0  0
   -4.3296   -1.8457   -0.5495 C   0  0  0  0  0  0  0  0  0  0  0  0
   -4.5486   -3.1402   -0.9662 C   0  0  0  0  0  0  0  0  0  0  0  0
   -5.8198   -3.5014   -1.4075 C   0  0  0  0  0  0  0  0  0  0  0  0
   -6.8527   -2.5648   -1.4259 C   0  0  0  0  0  0  0  0  0  0  0  0
   -6.6406   -1.2562   -1.0072 C   0  0  0  0  0  0  0  0  0  0  0  0
   -5.3755   -0.9113   -0.5721 C   0  0  0  0  0  0  0  0  0  0  0  0
   -8.0910   -2.9100   -1.8540 F   0  0  0  0  0  0  0  0  0  0  0  0
   -1.3679    8.8472   -0.7214 H   0  0  0  0  0  0  0  0  0  0  0  0
   -0.8854    8.1314    0.9193 H   0  0  0  0  0  0  0  0  0  0  0  0
   -2.1842    7.3463   -0.0746 H   0  0  0  0  0  0  0  0  0  0  0  0
    1.4922    5.5473   -1.8656 H   0  0  0  0  0  0  0  0  0  0  0  0
    1.7046    3.1620   -1.5603 H   0  0  0  0  0  0  0  0  0  0  0  0
   -1.5708    3.0870    1.1291 H   0  0  0  0  0  0  0  0  0  0  0  0
   -1.8022    5.5521    0.8233 H   0  0  0  0  0  0  0  0  0  0  0  0
    1.8529    1.1571   -1.2782 H   0  0  0  0  0  0  0  0  0  0  0  0
    2.6187   -0.8317   -1.9994 H   0  0  0  0  0  0  0  0  0  0  0  0
    1.8954   -2.3708   -1.5401 H   0  0  0  0  0  0  0  0  0  0  0  0
    4.4914    0.0594   -0.5692 H   0  0  0  0  0  0  0  0  0  0  0  0
    6.3906   -0.5214    0.8330 H   0  0  0  0  0  0  0  0  0  0  0  0
    6.4955   -2.6895    1.9952 H   0  0  0  0  0  0  0  0  0  0  0  0
    2.7622   -3.7187    0.3379 H   0  0  0  0  0  0  0  0  0  0  0  0
    6.7683   -4.7130    2.1484 H   0  0  0  0  0  0  0  0  0  0  0  0
    5.7628   -5.8462    3.0705 H   0  0  0  0  0  0  0  0  0  0  0  0
    5.8195   -4.1283    3.5533 H   0  0  0  0  0  0  0  0  0  0  0  0
   -1.8123   -0.2722    2.7307 H   0  0  0  0  0  0  0  0  0  0  0  0
   -1.1210   -1.8986    2.4750 H   0  0  0  0  0  0  0  0  0  0  0  0
   -2.3502   -0.9476   -0.7056 H   0  0  0  0  0  0  0  0  0  0  0  0
   -3.7209   -3.8221   -0.9323 H   0  0  0  0  0  0  0  0  0  0  0  0
   -5.9933   -4.5336   -1.7394 H   0  0  0  0  0  0  0  0  0  0  0  0
   -7.4451   -0.5277   -1.0218 H   0  0  0  0  0  0  0  0  0  0  0  0
   -5.2005    0.1057   -0.2439 H   0  0  0  0  0  0  0  0  0  0  0  0
  1  2  1  0
  2  3  1  0
  3  4  2  0
  4  5  1  0
  5  6  2  0
  6  7  1  0
  7  8  2  0
  6  9  1  0
  9 10  1  0
 10 11  2  0
 11 12  1  0
 12 13  1  0
 13 14  2  0
 14 15  1  0
 15 16  2  0
 16 17  1  0
 17 18  2  0
 17 19  1  0
 19 20  1  0
 11 21  1  0
 21 22  2  0
 21 23  1  0
 23 24  1  0
 23 25  1  0
 25 26  1  0
 26 27  2  0
 26 28  1  0
 28 29  1  0
 29 30  2  0
 30 31  1  0
 31 32  2  0
 32 33  1  0
 33 34  2  0
 32 35  1  0
  8  3  1  0
 24  9  2  0
 34 29  1  0
 18 13  1  0
  1 36  1  0
  1 37  1  0
  1 38  1  0
  4 39  1  0
  5 40  1  0
  7 41  1  0
  8 42  1  0
 10 43  1  0
 12 44  1  0
 12 45  1  0
 14 46  1  0
 15 47  1  0
 16 48  1  0
 18 49  1  0
 20 50  1  0
 20 51  1  0
 20 52  1  0
 25 53  1  0
 25 54  1  0
 28 55  1  0
 30 56  1  0
 31 57  1  0
 33 58  1  0
 34 59  1  0
M  END
>  <Ligand ID>  (1) 
LIG0004802

>  <Ligand>  (1) 
CHEMBL2391266

>  <SMILES>  (1) 
COc1ccc(cc1)c1cc(Cc2cccc(c2)OC)c(=O)n(n1)CC(=O)Nc1ccc(cc1)F

>  <CID>  (1) 
71698710.0

>  <ChEMBL ID>  (1) 
nan

>  <InChiKey>  (1) 
QNEIUZOSVVSZRQ-UHFFFAOYSA-N

>  <InChi>  (1) 
InChI=1S/C27H24FN3O4/c1-34-23-12-6-19(7-13-23)25-16-20(14-18-4-3-5-24(15-18)35-2)27(33)31(30-25)17-26(32)29-22-10-8-21(28)9-11-22/h3-13,15-16H,14,17H2,1-2H3,(H,29,32)

>  <IUPAC Name>  (1) 
N-(4-fluorophenyl)-2-[3-(4-methoxyphenyl)-5-[(3-methoxyphenyl)methyl]-6-oxopyridazin-1-yl]acetamide

$$$$
