
     RDKit          3D

 64 68  0  0  0  0  0  0  0  0999 V2000
    6.5469    0.9031    0.6514 C   0  0  0  0  0  0  0  0  0  0  0  0
    5.9871    1.2280   -0.7077 C   0  0  0  0  0  0  0  0  0  0  0  0
    4.6738    0.5078   -0.9192 C   0  0  0  0  0  0  0  0  0  0  0  0
    3.6717    0.9292    0.1320 C   0  0  0  0  0  0  0  0  0  0  0  0
    2.4300    0.2796   -0.0316 O   0  0  0  0  0  0  0  0  0  0  0  0
    1.4132    0.5671    0.8615 C   0  0  0  0  0  0  0  0  0  0  0  0
    1.6491    1.4856    1.8888 C   0  0  0  0  0  0  0  0  0  0  0  0
    0.6849    1.8210    2.8127 C   0  0  0  0  0  0  0  0  0  0  0  0
   -0.5346    1.2261    2.7050 C   0  0  0  0  0  0  0  0  0  0  0  0
   -0.8065    0.2993    1.6867 C   0  0  0  0  0  0  0  0  0  0  0  0
    0.1547   -0.0460    0.7524 C   0  0  0  0  0  0  0  0  0  0  0  0
   -0.1245   -1.0228   -0.3274 C   0  0  0  0  0  0  0  0  0  0  0  0
   -0.2440   -0.1514   -1.5550 C   0  0  0  0  0  0  0  0  0  0  0  0
   -1.4915    0.6592   -1.5613 C   0  0  0  0  0  0  0  0  0  0  0  0
   -2.4289    0.4844   -0.5327 N   0  0  0  0  0  0  0  0  0  0  0  0
   -2.4201   -0.6703    0.2808 C   0  0  2  0  0  0  0  0  0  0  0  0
   -2.1806   -0.2600    1.6960 C   0  0  0  0  0  0  0  0  0  0  0  0
   -1.4422   -1.7166   -0.2136 C   0  0  1  0  0  0  0  0  0  0  0  0
   -2.0534   -2.1309   -1.3375 O   0  0  0  0  0  0  0  0  0  0  0  0
   -1.6691   -3.0063   -2.2201 C   0  0  0  0  0  0  0  0  0  0  0  0
   -1.4931   -2.8138    0.8163 C   0  0  0  0  0  0  0  0  0  0  0  0
   -0.2855   -2.9977    1.6482 C   0  0  0  0  0  0  0  0  0  0  0  0
    1.0066   -2.6826    0.9386 C   0  0  0  0  0  0  0  0  0  0  0  0
    2.0417   -2.9334    1.5131 O   0  0  0  0  0  0  0  0  0  0  0  0
    0.9296   -2.0824   -0.4233 C   0  0  0  0  0  0  0  0  0  0  0  0
   -3.7514    0.7291   -1.0752 C   0  0  0  0  0  0  0  0  0  0  0  0
   -3.9503    2.1845   -1.4373 C   0  0  0  0  0  0  0  0  0  0  0  0
   -3.8373    3.2373   -0.3992 C   0  0  0  0  0  0  0  0  0  0  0  0
   -5.1934    2.8000   -0.8096 C   0  0  0  0  0  0  0  0  0  0  0  0
    7.6518    1.0217    0.6588 H   0  0  0  0  0  0  0  0  0  0  0  0
    6.1437    1.5802    1.4498 H   0  0  0  0  0  0  0  0  0  0  0  0
    6.2592   -0.1344    0.9069 H   0  0  0  0  0  0  0  0  0  0  0  0
    5.8153    2.3311   -0.7559 H   0  0  0  0  0  0  0  0  0  0  0  0
    6.7148    0.9302   -1.4862 H   0  0  0  0  0  0  0  0  0  0  0  0
    4.2769    0.6668   -1.9204 H   0  0  0  0  0  0  0  0  0  0  0  0
    4.8746   -0.5658   -0.7374 H   0  0  0  0  0  0  0  0  0  0  0  0
    3.5010    2.0169   -0.0277 H   0  0  0  0  0  0  0  0  0  0  0  0
    4.0541    0.7951    1.1520 H   0  0  0  0  0  0  0  0  0  0  0  0
    2.6140    1.9697    1.9919 H   0  0  0  0  0  0  0  0  0  0  0  0
    0.9132    2.5379    3.5891 H   0  0  0  0  0  0  0  0  0  0  0  0
   -1.2927    1.4944    3.4365 H   0  0  0  0  0  0  0  0  0  0  0  0
    0.6866    0.5121   -1.5545 H   0  0  0  0  0  0  0  0  0  0  0  0
   -0.1364   -0.6962   -2.5117 H   0  0  0  0  0  0  0  0  0  0  0  0
   -1.9677    0.6836   -2.5901 H   0  0  0  0  0  0  0  0  0  0  0  0
   -1.1666    1.7438   -1.4676 H   0  0  0  0  0  0  0  0  0  0  0  0
   -3.4501   -1.1408    0.2729 H   0  0  0  0  0  0  0  0  0  0  0  0
   -2.9500    0.5001    1.9358 H   0  0  0  0  0  0  0  0  0  0  0  0
   -2.2168   -1.0025    2.4722 H   0  0  0  0  0  0  0  0  0  0  0  0
   -1.4920   -4.0699   -1.8647 H   0  0  0  0  0  0  0  0  0  0  0  0
   -2.5925   -3.1902   -2.8670 H   0  0  0  0  0  0  0  0  0  0  0  0
   -0.8995   -2.8453   -2.9630 H   0  0  0  0  0  0  0  0  0  0  0  0
   -2.3780   -2.7779    1.4843 H   0  0  0  0  0  0  0  0  0  0  0  0
   -1.6441   -3.7800    0.2889 H   0  0  0  0  0  0  0  0  0  0  0  0
   -0.1477   -4.0571    1.9679 H   0  0  0  0  0  0  0  0  0  0  0  0
   -0.3030   -2.4323    2.6172 H   0  0  0  0  0  0  0  0  0  0  0  0
    0.6032   -2.9050   -1.0912 H   0  0  0  0  0  0  0  0  0  0  0  0
    1.9126   -1.8252   -0.7521 H   0  0  0  0  0  0  0  0  0  0  0  0
   -4.5387    0.3550   -0.3884 H   0  0  0  0  0  0  0  0  0  0  0  0
   -3.9283    0.1533   -2.0306 H   0  0  0  0  0  0  0  0  0  0  0  0
   -3.7769    2.4747   -2.4774 H   0  0  0  0  0  0  0  0  0  0  0  0
   -3.4514    2.8735    0.5980 H   0  0  0  0  0  0  0  0  0  0  0  0
   -3.4000    4.2055   -0.6895 H   0  0  0  0  0  0  0  0  0  0  0  0
   -5.7989    3.5188   -1.3977 H   0  0  0  0  0  0  0  0  0  0  0  0
   -5.7723    2.2312   -0.0821 H   0  0  0  0  0  0  0  0  0  0  0  0
  1  2  1  0
  2  3  1  0
  3  4  1  0
  4  5  1  0
  5  6  1  0
  6  7  2  0
  7  8  1  0
  8  9  2  0
  9 10  1  0
 10 11  2  0
 11 12  1  0
 12 13  1  0
 13 14  1  0
 14 15  1  0
 15 16  1  0
 16 17  1  0
 16 18  1  0
 18 19  1  6
 19 20  1  0
 18 21  1  0
 21 22  1  0
 22 23  1  0
 23 24  2  0
 23 25  1  0
 15 26  1  0
 26 27  1  0
 27 28  1  0
 28 29  1  0
 11  6  1  0
 25 12  1  0
 29 27  1  0
 17 10  1  0
 18 12  1  0
  1 30  1  0
  1 31  1  0
  1 32  1  0
  2 33  1  0
  2 34  1  0
  3 35  1  0
  3 36  1  0
  4 37  1  0
  4 38  1  0
  7 39  1  0
  8 40  1  0
  9 41  1  0
 13 42  1  0
 13 43  1  0
 14 44  1  0
 14 45  1  0
 16 46  1  1
 17 47  1  0
 17 48  1  0
 20 49  1  0
 20 50  1  0
 20 51  1  0
 21 52  1  0
 21 53  1  0
 22 54  1  0
 22 55  1  0
 25 56  1  0
 25 57  1  0
 26 58  1  0
 26 59  1  0
 27 60  1  0
 28 61  1  0
 28 62  1  0
 29 63  1  0
 29 64  1  0
M  END
>  <Ligand ID>  (1) 
LIG0004334

>  <Ligand>  (1) 
CHEMBL326860

>  <SMILES>  (1) 
CCCCOc1cccc2c1C13CCN([C@H](C2)[C@]3(OC)CCC(=O)C1)CC1CC1

>  <CID>  (1) 
44339472.0

>  <ChEMBL ID>  (1) 
nan

>  <InChiKey>  (1) 
ONTSMVMHZIYPME-HADLQSQHSA-N

>  <InChi>  (1) 
InChI=1S/C25H35NO3/c1-3-4-14-29-21-7-5-6-19-15-22-25(28-2)11-10-20(27)16-24(25,23(19)21)12-13-26(22)17-18-8-9-18/h5-7,18,22H,3-4,8-17H2,1-2H3/t22-,24?,25-/m1/s1

>  <IUPAC Name>  (1) 
(9R,10S)-3-butoxy-17-(cyclopropylmethyl)-10-methoxy-17-azatetracyclo[7.5.3.01,10.02,7]heptadeca-2(7),3,5-trien-13-one

$$$$
