
     RDKit          3D

 34 36  0  0  0  0  0  0  0  0999 V2000
    4.4324    0.6506    1.6083 C   0  0  0  0  0  0  0  0  0  0  0  0
    4.2696   -0.3325    0.1715 S   0  0  0  0  0  0  0  0  0  0  0  0
    5.3715    0.0034   -0.7979 O   0  0  0  0  0  0  0  0  0  0  0  0
    4.4623   -1.8066    0.4977 O   0  0  0  0  0  0  0  0  0  0  0  0
    2.7697   -0.1983   -0.6307 N   0  0  0  0  0  0  0  0  0  0  0  0
    1.5375   -0.5522   -0.0137 C   0  0  0  0  0  0  0  0  0  0  0  0
    1.5360   -1.0285    1.2966 C   0  0  0  0  0  0  0  0  0  0  0  0
    0.3716   -1.3834    1.9360 C   0  0  0  0  0  0  0  0  0  0  0  0
   -0.8607   -1.2810    1.2976 C   0  0  0  0  0  0  0  0  0  0  0  0
   -0.8437   -0.8081    0.0014 C   0  0  0  0  0  0  0  0  0  0  0  0
    0.3204   -0.4501   -0.6467 C   0  0  0  0  0  0  0  0  0  0  0  0
    0.0153    0.0176   -2.0223 C   0  0  0  0  0  0  0  0  0  0  0  0
   -1.4400   -0.2495   -2.2485 C   0  0  0  0  0  0  0  0  0  0  0  0
   -2.0012   -0.5983   -0.9111 C   0  0  0  0  0  0  0  0  0  0  0  0
   -2.9246    0.4478   -0.4445 C   0  0  0  0  0  0  0  0  0  0  0  0
   -2.8163    1.7431   -0.7661 N   0  0  0  0  0  0  0  0  0  0  0  0
   -3.8295    2.4103   -0.1637 C   0  0  0  0  0  0  0  0  0  0  0  0
   -4.5884    1.5053    0.5518 C   0  0  0  0  0  0  0  0  0  0  0  0
   -4.0036    0.3110    0.3564 N   0  0  0  0  0  0  0  0  0  0  0  0
    3.5131    1.0056    2.0663 H   0  0  0  0  0  0  0  0  0  0  0  0
    5.0205    1.5789    1.3476 H   0  0  0  0  0  0  0  0  0  0  0  0
    5.1157    0.1113    2.3170 H   0  0  0  0  0  0  0  0  0  0  0  0
    2.7054    0.1576   -1.6278 H   0  0  0  0  0  0  0  0  0  0  0  0
    2.4526   -1.1396    1.8675 H   0  0  0  0  0  0  0  0  0  0  0  0
    0.3598   -1.7569    2.9605 H   0  0  0  0  0  0  0  0  0  0  0  0
   -1.7634   -1.5664    1.8216 H   0  0  0  0  0  0  0  0  0  0  0  0
    0.5806   -0.6205   -2.7501 H   0  0  0  0  0  0  0  0  0  0  0  0
    0.2676    1.0808   -2.1226 H   0  0  0  0  0  0  0  0  0  0  0  0
   -1.6549   -0.9963   -3.0260 H   0  0  0  0  0  0  0  0  0  0  0  0
   -1.9111    0.7012   -2.6359 H   0  0  0  0  0  0  0  0  0  0  0  0
   -2.6115   -1.5340   -0.9972 H   0  0  0  0  0  0  0  0  0  0  0  0
   -4.0314    3.4642   -0.2171 H   0  0  0  0  0  0  0  0  0  0  0  0
   -5.4816    1.7021    1.1565 H   0  0  0  0  0  0  0  0  0  0  0  0
   -4.3398   -0.5889    0.7673 H   0  0  0  0  0  0  0  0  0  0  0  0
  1  2  1  0
  2  3  2  0
  2  4  2  0
  2  5  1  0
  5  6  1  0
  6  7  2  0
  7  8  1  0
  8  9  2  0
  9 10  1  0
 10 11  2  0
 11 12  1  0
 12 13  1  0
 13 14  1  0
 14 15  1  0
 15 16  2  0
 16 17  1  0
 17 18  2  0
 18 19  1  0
 11  6  1  0
 19 15  1  0
 14 10  1  0
  1 20  1  0
  1 21  1  0
  1 22  1  0
  5 23  1  0
  7 24  1  0
  8 25  1  0
  9 26  1  0
 12 27  1  0
 12 28  1  0
 13 29  1  0
 13 30  1  0
 14 31  1  0
 17 32  1  0
 18 33  1  0
 19 34  1  0
M  END
>  <Ligand ID>  (1) 
LIG0002031

>  <Ligand>  (1) 
CHEMBL257800

>  <SMILES>  (1) 
CS(=O)(=O)Nc1cccc2c1CCC2c1ncc[nH]1

>  <CID>  (1) 
44449304.0

>  <ChEMBL ID>  (1) 
nan

>  <InChiKey>  (1) 
QAFWYWHBAHTELS-UHFFFAOYSA-N

>  <InChi>  (1) 
InChI=1S/C13H15N3O2S/c1-19(17,18)16-12-4-2-3-9-10(12)5-6-11(9)13-14-7-8-15-13/h2-4,7-8,11,16H,5-6H2,1H3,(H,14,15)

>  <IUPAC Name>  (1) 
N-[1-(1H-imidazol-2-yl)-2,3-dihydro-1H-inden-4-yl]methanesulfonamide

$$$$
