
     RDKit          3D

 92 97  0  0  0  0  0  0  0  0999 V2000
    4.6063    5.4375    0.3059 N   0  0  0  0  0  0  0  0  0  0  0  0
    3.3930    6.1014    0.5958 C   0  0  0  0  0  0  0  0  0  0  0  0
    2.2991    5.5122    0.9258 N   0  0  0  0  0  0  0  0  0  0  0  0
    2.3450    4.0429    0.9983 C   0  0  0  0  0  0  0  0  0  0  0  0
    2.2861    3.5356   -0.4247 C   0  0  0  0  0  0  0  0  0  0  0  0
    2.3243    2.1032   -0.4985 N   0  0  0  0  0  0  0  0  0  0  0  0
    1.3341    1.2898    0.1121 C   0  0  0  0  0  0  0  0  0  0  0  0
    0.3923    1.8001    0.7382 O   0  0  0  0  0  0  0  0  0  0  0  0
    1.4630   -0.1708   -0.0235 C   0  0  1  0  0  0  0  0  0  0  0  0
    2.7607   -0.6887    0.5316 C   0  0  0  0  0  0  0  0  0  0  0  0
    2.4134   -2.1301    0.8474 C   0  0  2  0  0  0  0  0  0  0  0  0
    1.0340   -1.8672    1.5142 C   0  0  0  0  0  0  0  0  0  0  0  0
    0.4001   -0.9201    0.6157 N   0  0  0  0  0  0  0  0  0  0  0  0
   -0.9870   -0.7079    0.3480 C   0  0  0  0  0  0  0  0  0  0  0  0
   -1.2515    0.1748   -0.5157 O   0  0  0  0  0  0  0  0  0  0  0  0
   -2.0562   -1.4905    1.0480 C   0  0  2  0  0  0  0  0  0  0  0  0
   -3.3804   -1.2189    0.5717 N   0  0  0  0  0  0  0  0  0  0  0  0
   -3.9339    0.0293    0.2366 C   0  0  0  0  0  0  0  0  0  0  0  0
   -3.3579    1.1358    0.3099 O   0  0  0  0  0  0  0  0  0  0  0  0
   -5.3606    0.0950   -0.2664 C   0  0  1  0  0  0  0  0  0  0  0  0
   -5.6038    1.5064   -0.5191 N   0  0  0  0  0  0  0  0  0  0  0  0
   -6.9860    1.7684   -0.8386 C   0  0  0  0  0  0  0  0  0  0  0  0
   -7.5004    0.7904   -1.8546 C   0  0  0  0  0  0  0  0  0  0  0  0
   -6.8073   -0.3636   -2.1475 C   0  0  0  0  0  0  0  0  0  0  0  0
   -5.5218   -0.7382   -1.5085 C   0  0  0  0  0  0  0  0  0  0  0  0
   -7.3062   -1.2570   -3.0948 C   0  0  0  0  0  0  0  0  0  0  0  0
   -8.4986   -0.9726   -3.7337 C   0  0  0  0  0  0  0  0  0  0  0  0
   -9.1750    0.2040   -3.4142 C   0  0  0  0  0  0  0  0  0  0  0  0
   -8.6734    1.0765   -2.4788 C   0  0  0  0  0  0  0  0  0  0  0  0
   -1.9645   -1.4791    2.5336 C   0  0  0  0  0  0  0  0  0  0  0  0
   -2.0681   -0.1608    3.1541 C   0  0  0  0  0  0  0  0  0  0  0  0
   -3.3510    0.2824    3.4983 C   0  0  0  0  0  0  0  0  0  0  0  0
   -3.5657    1.5098    4.0870 C   0  0  0  0  0  0  0  0  0  0  0  0
   -2.4895    2.3248    4.3452 C   0  0  0  0  0  0  0  0  0  0  0  0
   -1.2184    1.9347    4.0269 C   0  0  0  0  0  0  0  0  0  0  0  0
   -1.0336    0.6935    3.4349 C   0  0  0  0  0  0  0  0  0  0  0  0
    3.2760   -2.7276    1.7001 O   0  0  0  0  0  0  0  0  0  0  0  0
    3.7798   -3.9161    1.2130 C   0  0  0  0  0  0  0  0  0  0  0  0
    4.5242   -3.8109   -0.0621 C   0  0  0  0  0  0  0  0  0  0  0  0
    3.9752   -4.0577   -1.2985 C   0  0  0  0  0  0  0  0  0  0  0  0
    4.6912   -3.9353   -2.4821 C   0  0  0  0  0  0  0  0  0  0  0  0
    6.0096   -3.5532   -2.4602 C   0  0  0  0  0  0  0  0  0  0  0  0
    6.5906   -3.2985   -1.2357 C   0  0  0  0  0  0  0  0  0  0  0  0
    5.8689   -3.4233   -0.0643 C   0  0  0  0  0  0  0  0  0  0  0  0
    7.9231   -2.9154   -1.2565 C   0  0  0  0  0  0  0  0  0  0  0  0
    8.5916   -2.8088   -2.4747 C   0  0  0  0  0  0  0  0  0  0  0  0
    8.0003   -3.0649   -3.6798 C   0  0  0  0  0  0  0  0  0  0  0  0
    6.6658   -3.4489   -3.6600 C   0  0  0  0  0  0  0  0  0  0  0  0
    3.3438    7.5344    0.5246 N   0  0  0  0  0  0  0  0  0  0  0  0
    5.0624    5.3747   -0.6115 H   0  0  0  0  0  0  0  0  0  0  0  0
    5.0942    4.9567    1.1147 H   0  0  0  0  0  0  0  0  0  0  0  0
    1.4768    3.6895    1.5621 H   0  0  0  0  0  0  0  0  0  0  0  0
    3.3237    3.7986    1.4742 H   0  0  0  0  0  0  0  0  0  0  0  0
    3.1147    3.9886   -1.0242 H   0  0  0  0  0  0  0  0  0  0  0  0
    1.3551    3.9562   -0.8895 H   0  0  0  0  0  0  0  0  0  0  0  0
    3.1110    1.6466   -1.0217 H   0  0  0  0  0  0  0  0  0  0  0  0
    1.4408   -0.4269   -1.1231 H   0  0  0  0  0  0  0  0  0  0  0  0
    3.6028   -0.5849   -0.1667 H   0  0  0  0  0  0  0  0  0  0  0  0
    2.9703   -0.1794    1.5028 H   0  0  0  0  0  0  0  0  0  0  0  0
    2.2057   -2.6132   -0.1111 H   0  0  0  0  0  0  0  0  0  0  0  0
    1.2195   -1.4662    2.5233 H   0  0  0  0  0  0  0  0  0  0  0  0
    0.5803   -2.8764    1.4927 H   0  0  0  0  0  0  0  0  0  0  0  0
   -1.8165   -2.5366    0.7226 H   0  0  0  0  0  0  0  0  0  0  0  0
   -4.0391   -2.0570    0.4526 H   0  0  0  0  0  0  0  0  0  0  0  0
   -6.0528   -0.2525    0.4975 H   0  0  0  0  0  0  0  0  0  0  0  0
   -5.3640    2.0679    0.3271 H   0  0  0  0  0  0  0  0  0  0  0  0
   -7.6324    1.6990    0.0626 H   0  0  0  0  0  0  0  0  0  0  0  0
   -7.0770    2.7930   -1.2278 H   0  0  0  0  0  0  0  0  0  0  0  0
   -5.4802   -1.7997   -1.1942 H   0  0  0  0  0  0  0  0  0  0  0  0
   -4.7099   -0.5228   -2.2367 H   0  0  0  0  0  0  0  0  0  0  0  0
   -6.8132   -2.1649   -3.3613 H   0  0  0  0  0  0  0  0  0  0  0  0
   -8.8931   -1.6585   -4.4696 H   0  0  0  0  0  0  0  0  0  0  0  0
  -10.1108    0.4003   -3.9338 H   0  0  0  0  0  0  0  0  0  0  0  0
   -9.2259    1.9848   -2.2543 H   0  0  0  0  0  0  0  0  0  0  0  0
   -2.8228   -2.1348    2.8844 H   0  0  0  0  0  0  0  0  0  0  0  0
   -1.0729   -1.9652    2.9000 H   0  0  0  0  0  0  0  0  0  0  0  0
   -4.2160   -0.3645    3.2949 H   0  0  0  0  0  0  0  0  0  0  0  0
   -4.5839    1.7719    4.3188 H   0  0  0  0  0  0  0  0  0  0  0  0
   -2.6568    3.2992    4.8126 H   0  0  0  0  0  0  0  0  0  0  0  0
   -0.3795    2.5589    4.2231 H   0  0  0  0  0  0  0  0  0  0  0  0
   -0.0445    0.4096    3.1953 H   0  0  0  0  0  0  0  0  0  0  0  0
    4.4183   -4.4393    1.9893 H   0  0  0  0  0  0  0  0  0  0  0  0
    2.9499   -4.6722    1.0496 H   0  0  0  0  0  0  0  0  0  0  0  0
    2.9458   -4.3778   -1.4125 H   0  0  0  0  0  0  0  0  0  0  0  0
    4.2048   -4.1438   -3.4416 H   0  0  0  0  0  0  0  0  0  0  0  0
    6.4032   -3.2044    0.8550 H   0  0  0  0  0  0  0  0  0  0  0  0
    8.4261   -2.7018   -0.3085 H   0  0  0  0  0  0  0  0  0  0  0  0
    9.6208   -2.5111   -2.4629 H   0  0  0  0  0  0  0  0  0  0  0  0
    8.4776   -2.9952   -4.6405 H   0  0  0  0  0  0  0  0  0  0  0  0
    6.1428   -3.6664   -4.5962 H   0  0  0  0  0  0  0  0  0  0  0  0
    3.6768    8.0638   -0.3189 H   0  0  0  0  0  0  0  0  0  0  0  0
    2.9673    8.0994    1.3274 H   0  0  0  0  0  0  0  0  0  0  0  0
  1  2  1  0
  2  3  2  3
  3  4  1  0
  4  5  1  0
  5  6  1  0
  6  7  1  0
  7  8  2  0
  7  9  1  0
  9 10  1  0
 10 11  1  0
 11 12  1  0
 12 13  1  0
 13 14  1  0
 14 15  2  0
 14 16  1  0
 16 17  1  0
 17 18  1  0
 18 19  2  0
 18 20  1  0
 20 21  1  0
 21 22  1  0
 22 23  1  0
 23 24  2  0
 24 25  1  0
 24 26  1  0
 26 27  2  0
 27 28  1  0
 28 29  2  0
 16 30  1  0
 30 31  1  0
 31 32  2  0
 32 33  1  0
 33 34  2  0
 34 35  1  0
 35 36  2  0
 11 37  1  0
 37 38  1  0
 38 39  1  0
 39 40  2  0
 40 41  1  0
 41 42  2  0
 42 43  1  0
 43 44  2  0
 43 45  1  0
 45 46  2  0
 46 47  1  0
 47 48  2  0
  2 49  1  0
 13  9  1  0
 25 20  1  0
 36 31  1  0
 44 39  1  0
 29 23  1  0
 48 42  1  0
  1 50  1  0
  1 51  1  0
  4 52  1  0
  4 53  1  0
  5 54  1  0
  5 55  1  0
  6 56  1  0
  9 57  1  6
 10 58  1  0
 10 59  1  0
 11 60  1  6
 12 61  1  0
 12 62  1  0
 16 63  1  6
 17 64  1  0
 20 65  1  1
 21 66  1  0
 22 67  1  0
 22 68  1  0
 25 69  1  0
 25 70  1  0
 26 71  1  0
 27 72  1  0
 28 73  1  0
 29 74  1  0
 30 75  1  0
 30 76  1  0
 32 77  1  0
 33 78  1  0
 34 79  1  0
 35 80  1  0
 36 81  1  0
 38 82  1  0
 38 83  1  0
 40 84  1  0
 41 85  1  0
 44 86  1  0
 45 87  1  0
 46 88  1  0
 47 89  1  0
 48 90  1  0
 49 91  1  0
 49 92  1  0
M  END
>  <Ligand ID>  (1) 
LIG0002422

>  <Ligand>  (1) 
CHEMBL375775

>  <SMILES>  (1) 
NC(=NCCNC(=O)[C@H]1C[C@H](CN1C(=O)[C@H](NC(=O)[C@H]1NCc2c(C1)cccc2)Cc1ccccc1)OCc1ccc2c(c1)cccc2)N

>  <CID>  (1) 
11845438.0

>  <ChEMBL ID>  (1) 
nan

>  <InChiKey>  (1) 
XJNKMZCGJSOFTK-KMKAFXEASA-N

>  <InChi>  (1) 
InChI=1S/C38H43N7O4/c39-38(40)42-17-16-41-36(47)34-21-31(49-24-26-14-15-27-10-4-5-11-28(27)18-26)23-45(34)37(48)33(19-25-8-2-1-3-9-25)44-35(46)32-20-29-12-6-7-13-30(29)22-43-32/h1-15,18,31-34,43H,16-17,19-24H2,(H,41,47)(H,44,46)(H4,39,40,42)/t31-,32+,33-,34-/m1/s1

>  <IUPAC Name>  (1) 
(3S)-N-[(2R)-1-[(2R,4R)-2-[2-(diaminomethylideneamino)ethylcarbamoyl]-4-(naphthalen-2-ylmethoxy)pyrrolidin-1-yl]-1-oxo-3-phenylpropan-2-yl]-1,2,3,4-tetrahydroisoquinoline-3-carboxamide

$$$$
