
     RDKit          3D

 39 41  0  0  0  0  0  0  0  0999 V2000
   -3.3291    0.5316    1.6665 O   0  0  0  0  0  0  0  0  0  0  0  0
   -3.9024    0.4165    0.5648 C   0  0  0  0  0  0  0  0  0  0  0  0
   -5.3749    0.2759    0.5795 C   0  0  0  0  0  0  0  0  0  0  0  0
   -6.3068    1.2671    0.7998 C   0  0  0  0  0  0  0  0  0  0  0  0
   -7.5354    0.6243    0.7101 C   0  0  0  0  0  0  0  0  0  0  0  0
   -7.3534   -0.6616    0.4523 O   0  0  0  0  0  0  0  0  0  0  0  0
   -6.0583   -0.9242    0.3637 C   0  0  0  0  0  0  0  0  0  0  0  0
   -5.4763   -2.2557    0.0859 C   0  0  0  0  0  0  0  0  0  0  0  0
   -3.2657    0.4105   -0.7020 N   0  0  0  0  0  0  0  0  0  0  0  0
   -1.8807    0.5362   -0.8829 N   0  0  0  0  0  0  0  0  0  0  0  0
   -1.0419    0.0140   -0.0402 C   0  0  0  0  0  0  0  0  0  0  0  0
    0.4000    0.1064   -0.1723 C   0  0  0  0  0  0  0  0  0  0  0  0
    1.2330   -0.4704    0.7668 C   0  0  0  0  0  0  0  0  0  0  0  0
    2.6070   -0.4206    0.6995 C   0  0  0  0  0  0  0  0  0  0  0  0
    3.2099    0.2402   -0.3599 C   0  0  0  0  0  0  0  0  0  0  0  0
    2.4160    0.8320   -1.3230 C   0  0  0  0  0  0  0  0  0  0  0  0
    1.0218    0.7616   -1.2237 C   0  0  0  0  0  0  0  0  0  0  0  0
    4.6584    0.2630   -0.3765 C   0  0  0  0  0  0  0  0  0  0  0  0
    5.3698   -0.7961    0.1437 C   0  0  0  0  0  0  0  0  0  0  0  0
    6.7329   -0.8614    0.1772 C   0  0  0  0  0  0  0  0  0  0  0  0
    7.4591    0.2091   -0.3459 C   0  0  0  0  0  0  0  0  0  0  0  0
    6.7489    1.2654   -0.8647 C   0  0  0  0  0  0  0  0  0  0  0  0
    5.3800    1.3201   -0.8939 C   0  0  0  0  0  0  0  0  0  0  0  0
   -6.1068    2.3111    0.9988 H   0  0  0  0  0  0  0  0  0  0  0  0
   -8.4634    1.1650    0.8422 H   0  0  0  0  0  0  0  0  0  0  0  0
   -5.7144   -2.9262    0.9488 H   0  0  0  0  0  0  0  0  0  0  0  0
   -5.8900   -2.6430   -0.8716 H   0  0  0  0  0  0  0  0  0  0  0  0
   -4.3778   -2.1631   -0.0210 H   0  0  0  0  0  0  0  0  0  0  0  0
   -3.8491    0.3056   -1.5901 H   0  0  0  0  0  0  0  0  0  0  0  0
   -1.4512   -0.5118    0.7955 H   0  0  0  0  0  0  0  0  0  0  0  0
    0.7733   -0.9906    1.5944 H   0  0  0  0  0  0  0  0  0  0  0  0
    3.1794   -0.9084    1.4893 H   0  0  0  0  0  0  0  0  0  0  0  0
    2.9131    1.3333   -2.1342 H   0  0  0  0  0  0  0  0  0  0  0  0
    0.4203    1.2219   -1.9794 H   0  0  0  0  0  0  0  0  0  0  0  0
    4.8265   -1.6502    0.5550 H   0  0  0  0  0  0  0  0  0  0  0  0
    7.2878   -1.6895    0.5867 H   0  0  0  0  0  0  0  0  0  0  0  0
    8.5364    0.1774   -0.3277 H   0  0  0  0  0  0  0  0  0  0  0  0
    7.3276    2.0965   -1.2678 H   0  0  0  0  0  0  0  0  0  0  0  0
    4.8765    2.1879   -1.3238 H   0  0  0  0  0  0  0  0  0  0  0  0
  1  2  2  0
  2  3  1  0
  3  4  1  0
  4  5  2  0
  5  6  1  0
  6  7  1  0
  7  8  1  0
  2  9  1  0
  9 10  1  0
 10 11  2  0
 11 12  1  0
 12 13  2  0
 13 14  1  0
 14 15  2  0
 15 16  1  0
 16 17  2  0
 15 18  1  0
 18 19  2  0
 19 20  1  0
 20 21  2  0
 21 22  1  0
 22 23  2  0
  7  3  2  0
 17 12  1  0
 23 18  1  0
  4 24  1  0
  5 25  1  0
  8 26  1  0
  8 27  1  0
  8 28  1  0
  9 29  1  0
 11 30  1  0
 13 31  1  0
 14 32  1  0
 16 33  1  0
 17 34  1  0
 19 35  1  0
 20 36  1  0
 21 37  1  0
 22 38  1  0
 23 39  1  0
M  END
>  <Ligand ID>  (1) 
LIG0003666

>  <Ligand>  (1) 
MLS000912298

>  <SMILES>  (1) 
O=C(c1ccoc1C)N/N=C/c1ccc(cc1)c1ccccc1

>  <CID>  (1) 
6878959.0

>  <ChEMBL ID>  (1) 
nan

>  <InChiKey>  (1) 
ZXNLASQMBWLSGV-DEDYPNTBSA-N

>  <InChi>  (1) 
InChI=1S/C19H16N2O2/c1-14-18(11-12-23-14)19(22)21-20-13-15-7-9-17(10-8-15)16-5-3-2-4-6-16/h2-13H,1H3,(H,21,22)/b20-13+

>  <IUPAC Name>  (1) 
2-methyl-N-[(E)-(4-phenylphenyl)methylideneamino]furan-3-carboxamide

$$$$
