
     RDKit          3D

 51 54  0  0  0  0  0  0  0  0999 V2000
    0.9704    1.7900    0.4222 O   0  0  0  0  0  0  0  0  0  0  0  0
    0.6511    0.5513    0.3746 C   0  0  0  0  0  0  0  0  0  0  0  0
   -0.7228    0.2765    0.2704 N   0  0  0  0  0  0  0  0  0  0  0  0
   -1.6272    1.4186    0.1742 C   0  0  0  0  0  0  0  0  0  0  0  0
   -1.5867    2.3272    1.3517 C   0  0  0  0  0  0  0  0  0  0  0  0
   -2.7669    3.2866    1.1801 C   0  0  0  0  0  0  0  0  0  0  0  0
   -2.4352    4.1230   -0.0272 C   0  0  0  0  0  0  0  0  0  0  0  0
   -2.2122    3.3625   -1.2800 C   0  0  0  0  0  0  0  0  0  0  0  0
   -1.3608    2.1246   -1.1244 C   0  0  0  0  0  0  0  0  0  0  0  0
   -1.3564   -1.0213    0.2830 C   0  0  0  0  0  0  0  0  0  0  0  0
   -1.3027   -1.7490    1.5945 C   0  0  0  0  0  0  0  0  0  0  0  0
   -2.4016   -2.8349    1.4747 C   0  0  0  0  0  0  0  0  0  0  0  0
   -2.0071   -3.7716    0.3538 C   0  0  0  0  0  0  0  0  0  0  0  0
   -2.0115   -3.0202   -0.9329 C   0  0  0  0  0  0  0  0  0  0  0  0
   -0.9286   -1.9473   -0.8123 C   0  0  0  0  0  0  0  0  0  0  0  0
    1.7669   -0.3629    0.4315 C   0  0  0  0  0  0  0  0  0  0  0  0
    2.0219   -1.5160    1.0339 N   0  0  0  0  0  0  0  0  0  0  0  0
    3.2316   -1.9584    0.7645 O   0  0  0  0  0  0  0  0  0  0  0  0
    3.8457   -1.1160   -0.0346 C   0  0  0  0  0  0  0  0  0  0  0  0
    2.9597   -0.0879   -0.2761 C   0  0  0  0  0  0  0  0  0  0  0  0
    5.2344   -1.3090   -0.5394 C   0  0  0  0  0  0  0  0  0  0  0  0
    6.0992   -0.0885   -0.3890 C   0  0  0  0  0  0  0  0  0  0  0  0
    5.6904   -0.6181   -1.7695 C   0  0  0  0  0  0  0  0  0  0  0  0
   -2.6985    1.0091    0.1347 H   0  0  0  0  0  0  0  0  0  0  0  0
   -0.6952    2.9971    1.2558 H   0  0  0  0  0  0  0  0  0  0  0  0
   -1.5906    1.8148    2.3079 H   0  0  0  0  0  0  0  0  0  0  0  0
   -3.6610    2.6665    1.0471 H   0  0  0  0  0  0  0  0  0  0  0  0
   -2.8033    3.9485    2.0602 H   0  0  0  0  0  0  0  0  0  0  0  0
   -1.5798    4.7731    0.2670 H   0  0  0  0  0  0  0  0  0  0  0  0
   -3.3108    4.8025   -0.2059 H   0  0  0  0  0  0  0  0  0  0  0  0
   -3.1969    3.1014   -1.7464 H   0  0  0  0  0  0  0  0  0  0  0  0
   -1.7028    4.0201   -2.0024 H   0  0  0  0  0  0  0  0  0  0  0  0
   -1.7101    1.4196   -1.9396 H   0  0  0  0  0  0  0  0  0  0  0  0
   -0.3059    2.2789   -1.3161 H   0  0  0  0  0  0  0  0  0  0  0  0
   -2.4886   -0.8682    0.1178 H   0  0  0  0  0  0  0  0  0  0  0  0
   -1.7081   -1.0563    2.3693 H   0  0  0  0  0  0  0  0  0  0  0  0
   -0.3736   -2.1971    1.8729 H   0  0  0  0  0  0  0  0  0  0  0  0
   -2.5107   -3.3975    2.4117 H   0  0  0  0  0  0  0  0  0  0  0  0
   -3.3115   -2.2941    1.1544 H   0  0  0  0  0  0  0  0  0  0  0  0
   -2.7050   -4.6278    0.3172 H   0  0  0  0  0  0  0  0  0  0  0  0
   -0.9706   -4.1309    0.5598 H   0  0  0  0  0  0  0  0  0  0  0  0
   -2.9607   -2.4927   -1.1089 H   0  0  0  0  0  0  0  0  0  0  0  0
   -1.7285   -3.6572   -1.7946 H   0  0  0  0  0  0  0  0  0  0  0  0
    0.0024   -2.4800   -0.5461 H   0  0  0  0  0  0  0  0  0  0  0  0
   -0.8176   -1.4092   -1.7862 H   0  0  0  0  0  0  0  0  0  0  0  0
    3.1614    0.7683   -0.8950 H   0  0  0  0  0  0  0  0  0  0  0  0
    5.6827   -2.3019   -0.2682 H   0  0  0  0  0  0  0  0  0  0  0  0
    7.1367   -0.3011   -0.0477 H   0  0  0  0  0  0  0  0  0  0  0  0
    5.6388    0.8307   -0.0319 H   0  0  0  0  0  0  0  0  0  0  0  0
    4.9993    0.0436   -2.3401 H   0  0  0  0  0  0  0  0  0  0  0  0
    6.4566   -1.1195   -2.3702 H   0  0  0  0  0  0  0  0  0  0  0  0
  1  2  2  0
  2  3  1  0
  3  4  1  0
  4  5  1  0
  5  6  1  0
  6  7  1  0
  7  8  1  0
  8  9  1  0
  3 10  1  0
 10 11  1  0
 11 12  1  0
 12 13  1  0
 13 14  1  0
 14 15  1  0
  2 16  1  0
 16 17  2  0
 17 18  1  0
 18 19  1  0
 19 20  2  0
 19 21  1  0
 21 22  1  0
 22 23  1  0
  9  4  1  0
 15 10  1  0
 20 16  1  0
 23 21  1  0
  4 24  1  0
  5 25  1  0
  5 26  1  0
  6 27  1  0
  6 28  1  0
  7 29  1  0
  7 30  1  0
  8 31  1  0
  8 32  1  0
  9 33  1  0
  9 34  1  0
 10 35  1  0
 11 36  1  0
 11 37  1  0
 12 38  1  0
 12 39  1  0
 13 40  1  0
 13 41  1  0
 14 42  1  0
 14 43  1  0
 15 44  1  0
 15 45  1  0
 20 46  1  0
 21 47  1  0
 22 48  1  0
 22 49  1  0
 23 50  1  0
 23 51  1  0
M  END
>  <Ligand ID>  (1) 
LIG0001364

>  <Ligand>  (1) 
CYM-5541

>  <SMILES>  (1) 
O=C(N(C1CCCCC1)C1CCCCC1)c1noc(c1)C1CC1

>  <CID>  (1) 
17253208.0

>  <ChEMBL ID>  (1) 
nan

>  <InChiKey>  (1) 
NDKGACIWVAOUQH-UHFFFAOYSA-N

>  <InChi>  (1) 
InChI=1S/C19H28N2O2/c22-19(17-13-18(23-20-17)14-11-12-14)21(15-7-3-1-4-8-15)16-9-5-2-6-10-16/h13-16H,1-12H2

>  <IUPAC Name>  (1) 
N,N-dicyclohexyl-5-cyclopropyl-1,2-oxazole-3-carboxamide

$$$$
