
     RDKit          3D

 62 66  0  0  0  0  0  0  0  0999 V2000
    9.4624   -0.2350   -0.4734 F   0  0  0  0  0  0  0  0  0  0  0  0
    8.3130    0.3699   -0.0752 C   0  0  0  0  0  0  0  0  0  0  0  0
    8.2976    1.6633    0.4190 C   0  0  0  0  0  0  0  0  0  0  0  0
    7.1428    2.2960    0.8290 C   0  0  0  0  0  0  0  0  0  0  0  0
    5.9545    1.6021    0.7398 C   0  0  0  0  0  0  0  0  0  0  0  0
    5.9270    0.2972    0.2476 C   0  0  0  0  0  0  0  0  0  0  0  0
    7.1122   -0.2826   -0.1472 C   0  0  0  0  0  0  0  0  0  0  0  0
    6.8016   -1.5191   -0.5732 N   0  0  0  0  0  0  0  0  0  0  0  0
    5.4759   -1.6826   -0.4419 C   0  0  0  0  0  0  0  0  0  0  0  0
    4.8879   -2.7407   -0.7606 O   0  0  0  0  0  0  0  0  0  0  0  0
    4.8972   -0.5802    0.0637 N   0  0  0  0  0  0  0  0  0  0  0  0
    3.5324   -0.2819    0.3773 C   0  0  0  0  0  0  0  0  0  0  0  0
    2.7931    0.4352   -0.7350 C   0  0  0  0  0  0  0  0  0  0  0  0
    1.4491    0.8788   -0.1478 C   0  0  0  0  0  0  0  0  0  0  0  0
    0.6538   -0.2541    0.2510 N   0  0  0  0  0  0  0  0  0  0  0  0
    1.3895   -1.4881    0.0697 C   0  0  0  0  0  0  0  0  0  0  0  0
    2.7121   -1.4401    0.8300 C   0  0  0  0  0  0  0  0  0  0  0  0
   -0.5436   -0.2844   -0.5244 C   0  0  0  0  0  0  0  0  0  0  0  0
   -1.4163    0.9279   -0.3605 C   0  0  0  0  0  0  0  0  0  0  0  0
   -2.7552    0.5290    0.1787 C   0  0  0  0  0  0  0  0  0  0  0  0
   -3.4850   -0.2944   -0.7548 N   0  0  0  0  0  0  0  0  0  0  0  0
   -2.5894   -1.3522   -1.2372 C   0  0  0  0  0  0  0  0  0  0  0  0
   -1.4007   -1.5055   -0.2991 C   0  0  0  0  0  0  0  0  0  0  0  0
   -4.5762   -1.0026   -0.1187 C   0  0  0  0  0  0  0  0  0  0  0  0
   -5.5855   -0.1350    0.5080 C   0  0  0  0  0  0  0  0  0  0  0  0
   -5.5658   -0.0088    1.8841 C   0  0  0  0  0  0  0  0  0  0  0  0
   -6.4911    0.7957    2.5143 C   0  0  0  0  0  0  0  0  0  0  0  0
   -7.4608    1.4982    1.8137 C   0  0  0  0  0  0  0  0  0  0  0  0
   -7.4645    1.3603    0.4480 C   0  0  0  0  0  0  0  0  0  0  0  0
   -6.5397    0.5518   -0.2254 C   0  0  0  0  0  0  0  0  0  0  0  0
   -6.5820    0.4298   -1.7013 C   0  0  0  0  0  0  0  0  0  0  0  0
   -7.6341    1.2246   -2.1739 F   0  0  0  0  0  0  0  0  0  0  0  0
   -6.9042   -0.8518   -2.1046 F   0  0  0  0  0  0  0  0  0  0  0  0
   -5.4461    0.9039   -2.3255 F   0  0  0  0  0  0  0  0  0  0  0  0
    9.2524    2.1906    0.4793 H   0  0  0  0  0  0  0  0  0  0  0  0
    7.2065    3.3206    1.2092 H   0  0  0  0  0  0  0  0  0  0  0  0
    5.0454    2.0893    1.0580 H   0  0  0  0  0  0  0  0  0  0  0  0
    7.4779   -2.2466   -0.9490 H   0  0  0  0  0  0  0  0  0  0  0  0
    3.5312    0.4610    1.2319 H   0  0  0  0  0  0  0  0  0  0  0  0
    3.3191    1.3799   -1.0243 H   0  0  0  0  0  0  0  0  0  0  0  0
    2.6473   -0.1535   -1.6394 H   0  0  0  0  0  0  0  0  0  0  0  0
    1.6601    1.4961    0.7549 H   0  0  0  0  0  0  0  0  0  0  0  0
    0.9392    1.5276   -0.8912 H   0  0  0  0  0  0  0  0  0  0  0  0
    0.8210   -2.3207    0.5558 H   0  0  0  0  0  0  0  0  0  0  0  0
    1.5623   -1.7400   -0.9900 H   0  0  0  0  0  0  0  0  0  0  0  0
    2.4159   -1.3447    1.9185 H   0  0  0  0  0  0  0  0  0  0  0  0
    3.1648   -2.4267    0.7406 H   0  0  0  0  0  0  0  0  0  0  0  0
   -0.2202   -0.3428   -1.6046 H   0  0  0  0  0  0  0  0  0  0  0  0
   -1.5716    1.4409   -1.3328 H   0  0  0  0  0  0  0  0  0  0  0  0
   -0.9543    1.7069    0.2947 H   0  0  0  0  0  0  0  0  0  0  0  0
   -2.6873    0.0852    1.1938 H   0  0  0  0  0  0  0  0  0  0  0  0
   -3.3406    1.4813    0.2834 H   0  0  0  0  0  0  0  0  0  0  0  0
   -3.0707   -2.3276   -1.3099 H   0  0  0  0  0  0  0  0  0  0  0  0
   -2.1460   -1.0860   -2.2289 H   0  0  0  0  0  0  0  0  0  0  0  0
   -0.8458   -2.3960   -0.6770 H   0  0  0  0  0  0  0  0  0  0  0  0
   -1.6707   -1.6688    0.7434 H   0  0  0  0  0  0  0  0  0  0  0  0
   -4.1430   -1.7040    0.6295 H   0  0  0  0  0  0  0  0  0  0  0  0
   -5.0355   -1.6460   -0.9175 H   0  0  0  0  0  0  0  0  0  0  0  0
   -4.8296   -0.5357    2.4803 H   0  0  0  0  0  0  0  0  0  0  0  0
   -6.5076    0.9209    3.6037 H   0  0  0  0  0  0  0  0  0  0  0  0
   -8.1701    2.1194    2.3510 H   0  0  0  0  0  0  0  0  0  0  0  0
   -8.2117    1.8951   -0.1526 H   0  0  0  0  0  0  0  0  0  0  0  0
  1  2  1  0
  2  3  2  0
  3  4  1  0
  4  5  2  0
  5  6  1  0
  6  7  2  0
  7  8  1  0
  8  9  1  0
  9 10  2  0
  9 11  1  0
 11 12  1  0
 12 13  1  0
 13 14  1  0
 14 15  1  0
 15 16  1  0
 16 17  1  0
 15 18  1  0
 18 19  1  0
 19 20  1  0
 20 21  1  0
 21 22  1  0
 22 23  1  0
 21 24  1  0
 24 25  1  0
 25 26  2  0
 26 27  1  0
 27 28  2  0
 28 29  1  0
 29 30  2  0
 30 31  1  0
 31 32  1  0
 31 33  1  0
 31 34  1  0
  7  2  1  0
 17 12  1  0
 23 18  1  0
 30 25  1  0
 11  6  1  0
  3 35  1  0
  4 36  1  0
  5 37  1  0
  8 38  1  0
 12 39  1  0
 13 40  1  0
 13 41  1  0
 14 42  1  0
 14 43  1  0
 16 44  1  0
 16 45  1  0
 17 46  1  0
 17 47  1  0
 18 48  1  0
 19 49  1  0
 19 50  1  0
 20 51  1  0
 20 52  1  0
 22 53  1  0
 22 54  1  0
 23 55  1  0
 23 56  1  0
 24 57  1  0
 24 58  1  0
 26 59  1  0
 27 60  1  0
 28 61  1  0
 29 62  1  0
M  END
>  <Ligand ID>  (1) 
LIG0000863

>  <Ligand>  (1) 
CHEMBL521914

>  <SMILES>  (1) 
Fc1cccc2c1[nH]c(=O)n2C1CCN(CC1)C1CCN(CC1)Cc1ccccc1C(F)(F)F

>  <CID>  (1) 
44579419.0

>  <ChEMBL ID>  (1) 
nan

>  <InChiKey>  (1) 
YCXFJNGLJADSBQ-UHFFFAOYSA-N

>  <InChi>  (1) 
InChI=1S/C25H28F4N4O/c26-21-6-3-7-22-23(21)30-24(34)33(22)19-10-14-32(15-11-19)18-8-12-31(13-9-18)16-17-4-1-2-5-20(17)25(27,28)29/h1-7,18-19H,8-16H2,(H,30,34)

>  <IUPAC Name>  (1) 
7-fluoro-3-[1-[1-[[2-(trifluoromethyl)phenyl]methyl]piperidin-4-yl]piperidin-4-yl]-1H-benzimidazol-2-one

$$$$
