
     RDKit          3D

143147  0  0  0  0  0  0  0  0999 V2000
  -10.1291    2.5625   -0.7767 C   0  0  0  0  0  0  0  0  0  0  0  0
  -10.0425    1.7296    0.4483 C   0  0  0  0  0  0  0  0  0  0  0  0
   -9.4594    0.3715    0.3583 C   0  0  0  0  0  0  0  0  0  0  0  0
   -8.0425    0.2207   -0.0682 C   0  0  0  0  0  0  0  0  0  0  0  0
   -7.7113    0.6457   -1.4282 C   0  0  1  0  0  0  0  0  0  0  0  0
   -6.2250    0.4578   -1.7282 C   0  0  0  0  0  0  0  0  0  0  0  0
   -5.8799   -0.1892   -2.7592 O   0  0  0  0  0  0  0  0  0  0  0  0
   -5.2923    1.0242   -0.8221 N   0  0  0  0  0  0  0  0  0  0  0  0
   -3.8697    0.9684   -0.9232 C   0  0  1  0  0  0  0  0  0  0  0  0
   -3.1066    2.2338   -0.8713 C   0  0  0  0  0  0  0  0  0  0  0  0
   -3.2647    3.0522    0.3451 C   0  0  0  0  0  0  0  0  0  0  0  0
   -4.0956    2.8821    1.2449 O   0  0  0  0  0  0  0  0  0  0  0  0
   -2.3903    4.1953    0.5828 N   0  0  0  0  0  0  0  0  0  0  0  0
   -2.5704    4.9916    1.7717 C   0  0  0  0  0  0  0  0  0  0  0  0
   -1.5548    6.0875    1.8682 C   0  0  0  0  0  0  0  0  0  0  0  0
   -0.1742    5.7063    2.2505 C   0  0  0  0  0  0  0  0  0  0  0  0
    0.5138    4.6864    1.4034 C   0  0  0  0  0  0  0  0  0  0  0  0
    1.8435    4.3187    1.9567 C   0  0  1  0  0  0  0  0  0  0  0  0
    2.5789    3.3199    1.2055 N   0  0  0  0  0  0  0  0  0  0  0  0
    3.4881    3.5909    0.1512 C   0  0  0  0  0  0  0  0  0  0  0  0
    3.5774    4.7482   -0.2460 O   0  0  0  0  0  0  0  0  0  0  0  0
    4.3248    2.4896   -0.4914 C   0  0  2  0  0  0  0  0  0  0  0  0
    4.1957    1.2391    0.1973 N   0  0  0  0  0  0  0  0  0  0  0  0
    3.5771    0.0656   -0.3597 C   0  0  0  0  0  0  0  0  0  0  0  0
    3.1346    0.2255   -1.5058 O   0  0  0  0  0  0  0  0  0  0  0  0
    3.4977   -1.2023    0.4182 C   0  0  1  0  0  0  0  0  0  0  0  0
    2.6845   -2.2175   -0.2473 N   0  0  0  0  0  0  0  0  0  0  0  0
    1.4709   -2.5662    0.3618 C   0  0  0  0  0  0  0  0  0  0  0  0
    1.1681   -1.9813    1.4152 O   0  0  0  0  0  0  0  0  0  0  0  0
    0.4613   -3.5824   -0.1195 C   0  0  2  0  0  0  0  0  0  0  0  0
   -0.7154   -3.3869    0.7799 N   0  0  0  0  0  0  0  0  0  0  0  0
   -1.7977   -2.6139    0.2706 C   0  0  0  0  0  0  0  0  0  0  0  0
   -1.7228   -2.3235   -0.9334 O   0  0  0  0  0  0  0  0  0  0  0  0
   -2.9522   -2.1727    1.1181 C   0  0  1  0  0  0  0  0  0  0  0  0
   -3.8186   -1.3006    0.3314 N   0  0  0  0  0  0  0  0  0  0  0  0
   -3.2130   -0.1059   -0.1438 C   0  0  0  0  0  0  0  0  0  0  0  0
   -2.0069    0.0313    0.1192 O   0  0  0  0  0  0  0  0  0  0  0  0
   -3.6773   -3.2457    1.7525 C   0  0  0  0  0  0  0  0  0  0  0  0
   -4.8155   -2.7304    2.5948 C   0  0  0  0  0  0  0  0  0  0  0  0
   -4.6514   -2.4149    3.9147 N   0  0  0  0  0  0  0  0  0  0  0  0
   -5.8468   -1.9977    4.3368 C   0  0  0  0  0  0  0  0  0  0  0  0
   -6.7564   -2.0407    3.3228 N   0  0  0  0  0  0  0  0  0  0  0  0
   -6.1191   -2.4987    2.2260 C   0  0  0  0  0  0  0  0  0  0  0  0
    0.8845   -4.9870    0.0152 C   0  0  0  0  0  0  0  0  0  0  0  0
    2.0855   -5.4055   -0.7070 C   0  0  0  0  0  0  0  0  0  0  0  0
    3.3731   -5.3753   -0.2332 C   0  0  0  0  0  0  0  0  0  0  0  0
    4.4257   -5.8030   -1.0018 C   0  0  0  0  0  0  0  0  0  0  0  0
    4.2532   -6.2885   -2.2933 C   0  0  0  0  0  0  0  0  0  0  0  0
    2.9655   -6.3226   -2.7785 C   0  0  0  0  0  0  0  0  0  0  0  0
    1.9003   -5.8930   -2.0093 C   0  0  0  0  0  0  0  0  0  0  0  0
    5.5677   -6.8393   -3.2846 Cl  0  0  0  0  0  0  0  0  0  0  0  0
    4.8500   -1.7438    0.7773 C   0  0  0  0  0  0  0  0  0  0  0  0
    5.7423   -2.0618   -0.3663 C   0  0  0  0  0  0  0  0  0  0  0  0
    7.0423   -2.6183    0.2419 C   0  0  0  0  0  0  0  0  0  0  0  0
    6.6429   -3.7987    0.9611 N   0  0  0  0  0  0  0  0  0  0  0  0
    6.7638   -3.8231    2.2449 C   0  0  0  0  0  0  0  0  0  0  0  0
    7.2925   -2.6714    2.8823 N   0  0  0  0  0  0  0  0  0  0  0  0
    6.3785   -4.9769    3.0154 N   0  0  0  0  0  0  0  0  0  0  0  0
    5.7286    3.0453   -0.4433 C   0  0  0  0  0  0  0  0  0  0  0  0
    6.7707    2.1651   -0.9829 C   0  0  0  0  0  0  0  0  0  0  0  0
    7.6779    1.4908   -0.1533 C   0  0  0  0  0  0  0  0  0  0  0  0
    8.5328    0.7744   -0.9054 N   0  0  0  0  0  0  0  0  0  0  0  0
    8.2028    0.9674   -2.1880 C   0  0  0  0  0  0  0  0  0  0  0  0
    7.1171    1.8220   -2.2695 C   0  0  0  0  0  0  0  0  0  0  0  0
    6.5700    2.1891   -3.4675 C   0  0  0  0  0  0  0  0  0  0  0  0
    7.1694    1.6517   -4.6110 C   0  0  0  0  0  0  0  0  0  0  0  0
    8.2420    0.8068   -4.5346 C   0  0  0  0  0  0  0  0  0  0  0  0
    8.8098    0.4263   -3.3097 C   0  0  0  0  0  0  0  0  0  0  0  0
    2.7018    5.4433    2.4178 C   0  0  0  0  0  0  0  0  0  0  0  0
    2.3326    6.4425    3.0425 O   0  0  0  0  0  0  0  0  0  0  0  0
    4.1330    5.4126    2.1352 N   0  0  0  0  0  0  0  0  0  0  0  0
   -8.4230   -0.0668   -2.4771 N   0  0  0  0  0  0  0  0  0  0  0  0
   -8.8843    0.5134   -3.6791 C   0  0  0  0  0  0  0  0  0  0  0  0
   -8.7360    1.7198   -3.9926 O   0  0  0  0  0  0  0  0  0  0  0  0
   -9.5982   -0.4050   -4.6304 C   0  0  0  0  0  0  0  0  0  0  0  0
  -10.2149    2.0328   -1.7185 H   0  0  0  0  0  0  0  0  0  0  0  0
  -11.0887    3.1878   -0.6685 H   0  0  0  0  0  0  0  0  0  0  0  0
   -9.2876    3.3199   -0.7841 H   0  0  0  0  0  0  0  0  0  0  0  0
  -11.0779    1.5989    0.8766 H   0  0  0  0  0  0  0  0  0  0  0  0
   -9.4819    2.3414    1.2159 H   0  0  0  0  0  0  0  0  0  0  0  0
   -9.6398   -0.1209    1.3656 H   0  0  0  0  0  0  0  0  0  0  0  0
  -10.1589   -0.2289   -0.3067 H   0  0  0  0  0  0  0  0  0  0  0  0
   -7.7449   -0.8374    0.1655 H   0  0  0  0  0  0  0  0  0  0  0  0
   -7.4257    0.8017    0.7034 H   0  0  0  0  0  0  0  0  0  0  0  0
   -7.8460    1.7161   -1.5835 H   0  0  0  0  0  0  0  0  0  0  0  0
   -5.6813    1.5495    0.0223 H   0  0  0  0  0  0  0  0  0  0  0  0
   -3.6415    0.5880   -2.0181 H   0  0  0  0  0  0  0  0  0  0  0  0
   -3.2308    2.8384   -1.7992 H   0  0  0  0  0  0  0  0  0  0  0  0
   -2.0115    1.9459   -0.8993 H   0  0  0  0  0  0  0  0  0  0  0  0
   -1.7086    4.3388   -0.1583 H   0  0  0  0  0  0  0  0  0  0  0  0
   -2.5686    4.3718    2.6973 H   0  0  0  0  0  0  0  0  0  0  0  0
   -3.5715    5.4945    1.7844 H   0  0  0  0  0  0  0  0  0  0  0  0
   -1.4634    6.6431    0.8823 H   0  0  0  0  0  0  0  0  0  0  0  0
   -1.8794    6.8874    2.5778 H   0  0  0  0  0  0  0  0  0  0  0  0
    0.4344    6.6819    2.1553 H   0  0  0  0  0  0  0  0  0  0  0  0
   -0.0536    5.4441    3.3377 H   0  0  0  0  0  0  0  0  0  0  0  0
   -0.1264    3.7584    1.4090 H   0  0  0  0  0  0  0  0  0  0  0  0
    0.6050    5.0708    0.3613 H   0  0  0  0  0  0  0  0  0  0  0  0
    1.6747    3.7717    2.9774 H   0  0  0  0  0  0  0  0  0  0  0  0
    2.4672    2.3126    1.4135 H   0  0  0  0  0  0  0  0  0  0  0  0
    3.9492    2.4453   -1.5405 H   0  0  0  0  0  0  0  0  0  0  0  0
    4.5493    1.1224    1.1480 H   0  0  0  0  0  0  0  0  0  0  0  0
    3.0086   -0.9579    1.4121 H   0  0  0  0  0  0  0  0  0  0  0  0
    2.9223   -2.6864   -1.1154 H   0  0  0  0  0  0  0  0  0  0  0  0
    0.2449   -3.3006   -1.1444 H   0  0  0  0  0  0  0  0  0  0  0  0
   -0.7985   -3.7597    1.7020 H   0  0  0  0  0  0  0  0  0  0  0  0
   -2.4186   -1.5076    1.8724 H   0  0  0  0  0  0  0  0  0  0  0  0
   -4.7827   -1.4516    0.0885 H   0  0  0  0  0  0  0  0  0  0  0  0
   -3.0529   -3.8792    2.4258 H   0  0  0  0  0  0  0  0  0  0  0  0
   -4.1858   -3.9238    1.0084 H   0  0  0  0  0  0  0  0  0  0  0  0
   -3.7943   -2.4803    4.4692 H   0  0  0  0  0  0  0  0  0  0  0  0
   -6.0898   -1.6696    5.3202 H   0  0  0  0  0  0  0  0  0  0  0  0
   -6.5408   -2.6583    1.2361 H   0  0  0  0  0  0  0  0  0  0  0  0
    1.0332   -5.1910    1.1126 H   0  0  0  0  0  0  0  0  0  0  0  0
    0.0766   -5.7197   -0.2641 H   0  0  0  0  0  0  0  0  0  0  0  0
    3.5135   -4.9895    0.7924 H   0  0  0  0  0  0  0  0  0  0  0  0
    5.4598   -5.7838   -0.6325 H   0  0  0  0  0  0  0  0  0  0  0  0
    2.7996   -6.6978   -3.7768 H   0  0  0  0  0  0  0  0  0  0  0  0
    0.9096   -5.9438   -2.4584 H   0  0  0  0  0  0  0  0  0  0  0  0
    4.7854   -2.6252    1.4185 H   0  0  0  0  0  0  0  0  0  0  0  0
    5.3615   -0.9620    1.3879 H   0  0  0  0  0  0  0  0  0  0  0  0
    5.3741   -2.8420   -1.0484 H   0  0  0  0  0  0  0  0  0  0  0  0
    6.0409   -1.2161   -1.0008 H   0  0  0  0  0  0  0  0  0  0  0  0
    7.3566   -1.8365    0.9843 H   0  0  0  0  0  0  0  0  0  0  0  0
    7.8010   -2.7807   -0.5359 H   0  0  0  0  0  0  0  0  0  0  0  0
    6.6398   -2.0844    3.4837 H   0  0  0  0  0  0  0  0  0  0  0  0
    8.2800   -2.3519    2.8061 H   0  0  0  0  0  0  0  0  0  0  0  0
    7.0599   -5.4893    3.6187 H   0  0  0  0  0  0  0  0  0  0  0  0
    5.3723   -5.2611    2.9273 H   0  0  0  0  0  0  0  0  0  0  0  0
    5.7649    4.0721   -0.9231 H   0  0  0  0  0  0  0  0  0  0  0  0
    5.9007    3.2846    0.6476 H   0  0  0  0  0  0  0  0  0  0  0  0
    7.7069    1.5261    0.9252 H   0  0  0  0  0  0  0  0  0  0  0  0
    9.3064    0.1839   -0.4923 H   0  0  0  0  0  0  0  0  0  0  0  0
    5.7368    2.8450   -3.4854 H   0  0  0  0  0  0  0  0  0  0  0  0
    6.7415    1.9355   -5.5546 H   0  0  0  0  0  0  0  0  0  0  0  0
    8.7115    0.3855   -5.4227 H   0  0  0  0  0  0  0  0  0  0  0  0
    9.6436   -0.2315   -3.3000 H   0  0  0  0  0  0  0  0  0  0  0  0
    4.5661    4.4777    2.2725 H   0  0  0  0  0  0  0  0  0  0  0  0
    4.6358    6.2710    1.8287 H   0  0  0  0  0  0  0  0  0  0  0  0
   -8.5854   -1.1029   -2.2768 H   0  0  0  0  0  0  0  0  0  0  0  0
   -9.9912   -1.2866   -4.1085 H   0  0  0  0  0  0  0  0  0  0  0  0
  -10.4635    0.1812   -5.0452 H   0  0  0  0  0  0  0  0  0  0  0  0
   -8.9570   -0.6327   -5.5080 H   0  0  0  0  0  0  0  0  0  0  0  0
  1  2  1  0
  2  3  1  0
  3  4  1  0
  4  5  1  0
  5  6  1  0
  6  7  2  0
  6  8  1  0
  8  9  1  0
  9 10  1  0
 10 11  1  0
 11 12  2  0
 11 13  1  0
 13 14  1  0
 14 15  1  0
 15 16  1  0
 16 17  1  0
 17 18  1  0
 18 19  1  0
 19 20  1  0
 20 21  2  0
 20 22  1  0
 22 23  1  0
 23 24  1  0
 24 25  2  0
 24 26  1  0
 26 27  1  0
 27 28  1  0
 28 29  2  0
 28 30  1  0
 30 31  1  0
 31 32  1  0
 32 33  2  0
 32 34  1  0
 34 35  1  0
 35 36  1  0
 36 37  2  0
 34 38  1  0
 38 39  1  0
 39 40  1  0
 40 41  1  0
 41 42  2  0
 42 43  1  0
 30 44  1  0
 44 45  1  0
 45 46  2  0
 46 47  1  0
 47 48  2  0
 48 49  1  0
 49 50  2  0
 48 51  1  0
 26 52  1  0
 52 53  1  0
 53 54  1  0
 54 55  1  0
 55 56  2  3
 56 57  1  0
 56 58  1  0
 22 59  1  0
 59 60  1  0
 60 61  2  0
 61 62  1  0
 62 63  1  0
 63 64  2  0
 64 65  1  0
 65 66  2  0
 66 67  1  0
 67 68  2  0
 18 69  1  0
 69 70  2  0
 69 71  1  0
  5 72  1  0
 72 73  1  0
 73 74  2  0
 73 75  1  0
 36  9  1  0
 43 39  2  0
 50 45  1  0
 64 60  1  0
 68 63  1  0
  1 76  1  0
  1 77  1  0
  1 78  1  0
  2 79  1  0
  2 80  1  0
  3 81  1  0
  3 82  1  0
  4 83  1  0
  4 84  1  0
  5 85  1  1
  8 86  1  0
  9 87  1  6
 10 88  1  0
 10 89  1  0
 13 90  1  0
 14 91  1  0
 14 92  1  0
 15 93  1  0
 15 94  1  0
 16 95  1  0
 16 96  1  0
 17 97  1  0
 17 98  1  0
 18 99  1  1
 19100  1  0
 22101  1  6
 23102  1  0
 26103  1  1
 27104  1  0
 30105  1  6
 31106  1  0
 34107  1  1
 35108  1  0
 38109  1  0
 38110  1  0
 40111  1  0
 41112  1  0
 43113  1  0
 44114  1  0
 44115  1  0
 46116  1  0
 47117  1  0
 49118  1  0
 50119  1  0
 52120  1  0
 52121  1  0
 53122  1  0
 53123  1  0
 54124  1  0
 54125  1  0
 57126  1  0
 57127  1  0
 58128  1  0
 58129  1  0
 59130  1  0
 59131  1  0
 61132  1  0
 62133  1  0
 65134  1  0
 66135  1  0
 67136  1  0
 68137  1  0
 71138  1  0
 71139  1  0
 72140  1  0
 75141  1  0
 75142  1  0
 75143  1  0
M  END
>  <Ligand ID>  (1) 
LIG0000969

>  <Ligand>  (1) 
CHEMBL413212

>  <SMILES>  (1) 
CCCC[C@@H](C(=O)N[C@H]1CC(=O)NCCCC[C@@H](NC(=O)[C@H](NC(=O)[C@@H](NC(=O)[C@H](NC(=O)[C@@H](NC1=O)Cc1[nH]cnc1)Cc1ccc(cc1)Cl)CCCN=C(N)N)Cc1c[nH]c2c1cccc2)C(=O)N)NC(=O)C

>  <CID>  (1) 
44343363.0

>  <ChEMBL ID>  (1) 
nan

>  <InChiKey>  (1) 
XKNNYYXDOBIKRE-MYGWSCCLSA-N

>  <InChi>  (1) 
InChI=1S/C50H68ClN15O9/c1-3-4-11-36(60-28(2)67)44(70)66-41-24-42(68)56-19-8-7-13-35(43(52)69)61-47(73)39(22-30-25-58-34-12-6-5-10-33(30)34)64-45(71)37(14-9-20-57-50(53)54)62-46(72)38(21-29-15-17-31(51)18-16-29)63-48(74)40(65-49(41)75)23-32-26-55-27-59-32/h5-6,10,12,15-18,25-27,35-41,58H,3-4,7-9,11,13-14,19-24H2,1-2H3,(H2,52,69)(H,55,59)(H,56,68)(H,60,67)(H,61,73)(H,62,72)(H,63,74)(H,64,71)(H,65,75)(H,66,70)(H4,53,54,57)/t35-,36+,37+,38-,39-,40+,41+/m1/s1

>  <IUPAC Name>  (1) 
(3R,6S,9R,12S,15S,23R)-15-[[(2S)-2-acetamidohexanoyl]amino]-9-[(4-chlorophenyl)methyl]-6-[3-(diaminomethylideneamino)propyl]-12-(1H-imidazol-5-ylmethyl)-3-(1H-indol-3-ylmethyl)-2,5,8,11,14,17-hexaoxo-1,4,7,10,13,18-hexazacyclotricosane-23-carboxamide

$$$$
