
     RDKit          3D

 85 92  0  0  0  0  0  0  0  0999 V2000
    1.1168   -3.8089   -0.0354 C   0  0  0  0  0  0  0  0  0  0  0  0
    1.0046   -2.6070    0.5521 O   0  0  0  0  0  0  0  0  0  0  0  0
   -0.0118   -1.7676    0.2518 C   0  0  2  0  0  0  0  0  0  0  0  0
   -0.1174   -1.3604   -1.1777 C   0  0  0  0  0  0  0  0  0  0  0  0
   -0.9584   -0.1299   -1.3705 C   0  0  0  0  0  0  0  0  0  0  0  0
   -1.8113   -0.0034   -0.1110 C   0  0  2  0  0  0  0  0  0  0  0  0
   -0.8490    0.5308    0.9124 C   0  0  0  0  0  0  0  0  0  0  0  0
    0.1476   -0.5758    1.1907 C   0  0  2  0  0  0  0  0  0  0  0  0
    1.5165   -0.1216    1.4701 C   0  0  2  0  0  0  0  0  0  0  0  0
    2.3912    0.3408    0.3808 C   0  0  0  0  0  0  0  0  0  0  0  0
    3.7238    0.7397    1.0387 C   0  0  0  0  0  0  0  0  0  0  0  0
    4.7257    1.2454    0.0443 C   0  0  0  0  0  0  0  0  0  0  0  0
    6.0303    1.6324    0.7271 C   0  0  0  0  0  0  0  0  0  0  0  0
    7.0817    0.5827    0.4602 C   0  0  0  0  0  0  0  0  0  0  0  0
    7.4341    0.6941   -1.0154 C   0  0  0  0  0  0  0  0  0  0  0  0
    6.1839    0.7217   -1.8653 C   0  0  0  0  0  0  0  0  0  0  0  0
    5.0211    0.2321   -1.0398 C   0  0  0  0  0  0  0  0  0  0  0  0
    2.2558   -1.0970    2.1902 O   0  0  0  0  0  0  0  0  0  0  0  0
    1.3873    1.0310    2.4787 C   0  0  0  0  0  0  0  0  0  0  0  0
   -2.3693   -1.3205    0.3061 C   0  0  2  0  0  0  0  0  0  0  0  0
   -1.3235   -2.3757    0.6623 C   0  0  1  0  0  0  0  0  0  0  0  0
   -1.7659   -3.5108   -0.0196 O   0  0  0  0  0  0  0  0  0  0  0  0
   -2.6133   -3.2095   -1.0784 C   0  0  0  0  0  0  0  0  0  0  0  0
   -2.9517   -1.8991   -0.9240 C   0  0  0  0  0  0  0  0  0  0  0  0
   -3.7416   -1.1410   -1.7055 C   0  0  0  0  0  0  0  0  0  0  0  0
   -3.9228    0.2882   -1.3945 C   0  0  0  0  0  0  0  0  0  0  0  0
   -2.9924    0.8847   -0.3986 C   0  0  1  0  0  0  0  0  0  0  0  0
   -3.7425    1.1738    0.7908 N   0  0  0  0  0  0  0  0  0  0  0  0
   -4.0437    0.0833    1.6107 C   0  0  0  0  0  0  0  0  0  0  0  0
   -3.3086   -1.1867    1.4335 C   0  0  0  0  0  0  0  0  0  0  0  0
   -3.7038    2.4770    1.3023 C   0  0  0  0  0  0  0  0  0  0  0  0
   -4.4303    3.4142    0.3318 C   0  0  0  0  0  0  0  0  0  0  0  0
   -4.5125    4.8619    0.6757 C   0  0  0  0  0  0  0  0  0  0  0  0
   -3.6833    4.3696   -0.4913 C   0  0  0  0  0  0  0  0  0  0  0  0
   -4.2949   -1.7788   -2.8180 C   0  0  0  0  0  0  0  0  0  0  0  0
   -3.9962   -3.1282   -3.0398 C   0  0  0  0  0  0  0  0  0  0  0  0
   -3.1583   -3.8479   -2.1775 C   0  0  0  0  0  0  0  0  0  0  0  0
   -2.8516   -5.1741   -2.3786 O   0  0  0  0  0  0  0  0  0  0  0  0
    2.0544   -4.2959    0.3810 H   0  0  0  0  0  0  0  0  0  0  0  0
    1.2323   -3.8427   -1.1343 H   0  0  0  0  0  0  0  0  0  0  0  0
    0.2847   -4.5074    0.2206 H   0  0  0  0  0  0  0  0  0  0  0  0
    0.8628   -1.1669   -1.6648 H   0  0  0  0  0  0  0  0  0  0  0  0
   -0.5785   -2.1563   -1.7949 H   0  0  0  0  0  0  0  0  0  0  0  0
   -0.3163    0.7731   -1.4431 H   0  0  0  0  0  0  0  0  0  0  0  0
   -1.5612   -0.1428   -2.3005 H   0  0  0  0  0  0  0  0  0  0  0  0
   -1.3270    0.9145    1.8237 H   0  0  0  0  0  0  0  0  0  0  0  0
   -0.3473    1.4096    0.4197 H   0  0  0  0  0  0  0  0  0  0  0  0
   -0.2094   -0.9875    2.1907 H   0  0  0  0  0  0  0  0  0  0  0  0
    1.9873    1.2367   -0.0899 H   0  0  0  0  0  0  0  0  0  0  0  0
    2.6884   -0.4146   -0.3569 H   0  0  0  0  0  0  0  0  0  0  0  0
    3.5820    1.4448    1.8772 H   0  0  0  0  0  0  0  0  0  0  0  0
    4.2029   -0.1704    1.5065 H   0  0  0  0  0  0  0  0  0  0  0  0
    4.2696    2.1382   -0.4479 H   0  0  0  0  0  0  0  0  0  0  0  0
    6.3656    2.5694    0.2666 H   0  0  0  0  0  0  0  0  0  0  0  0
    5.8755    1.7646    1.8163 H   0  0  0  0  0  0  0  0  0  0  0  0
    6.7819   -0.4273    0.7337 H   0  0  0  0  0  0  0  0  0  0  0  0
    7.9940    0.8496    1.0615 H   0  0  0  0  0  0  0  0  0  0  0  0
    7.9157    1.7064   -1.1098 H   0  0  0  0  0  0  0  0  0  0  0  0
    8.1296   -0.0831   -1.3534 H   0  0  0  0  0  0  0  0  0  0  0  0
    6.2591    0.0827   -2.7701 H   0  0  0  0  0  0  0  0  0  0  0  0
    5.9369    1.7613   -2.1745 H   0  0  0  0  0  0  0  0  0  0  0  0
    5.2227   -0.7457   -0.5422 H   0  0  0  0  0  0  0  0  0  0  0  0
    4.1286    0.0987   -1.6960 H   0  0  0  0  0  0  0  0  0  0  0  0
    1.6493   -1.7269    2.6551 H   0  0  0  0  0  0  0  0  0  0  0  0
    1.5166    2.0164    1.9891 H   0  0  0  0  0  0  0  0  0  0  0  0
    2.1637    0.9894    3.2652 H   0  0  0  0  0  0  0  0  0  0  0  0
    0.4208    0.9525    3.0329 H   0  0  0  0  0  0  0  0  0  0  0  0
   -1.3320   -2.5351    1.7741 H   0  0  0  0  0  0  0  0  0  0  0  0
   -4.9834    0.3674   -1.0035 H   0  0  0  0  0  0  0  0  0  0  0  0
   -3.9460    0.9093   -2.3371 H   0  0  0  0  0  0  0  0  0  0  0  0
   -2.6047    1.8439   -0.7981 H   0  0  0  0  0  0  0  0  0  0  0  0
   -5.1557   -0.1443    1.5675 H   0  0  0  0  0  0  0  0  0  0  0  0
   -3.9251    0.4276    2.6842 H   0  0  0  0  0  0  0  0  0  0  0  0
   -2.7986   -1.4419    2.4017 H   0  0  0  0  0  0  0  0  0  0  0  0
   -4.0502   -2.0455    1.3300 H   0  0  0  0  0  0  0  0  0  0  0  0
   -4.3149    2.5150    2.2289 H   0  0  0  0  0  0  0  0  0  0  0  0
   -2.6781    2.8439    1.5037 H   0  0  0  0  0  0  0  0  0  0  0  0
   -5.3551    2.9634   -0.0784 H   0  0  0  0  0  0  0  0  0  0  0  0
   -3.9836    5.1462    1.6115 H   0  0  0  0  0  0  0  0  0  0  0  0
   -5.3853    5.4618    0.4268 H   0  0  0  0  0  0  0  0  0  0  0  0
   -4.0280    4.5774   -1.5063 H   0  0  0  0  0  0  0  0  0  0  0  0
   -2.5897    4.5326   -0.3503 H   0  0  0  0  0  0  0  0  0  0  0  0
   -4.9372   -1.2128   -3.4739 H   0  0  0  0  0  0  0  0  0  0  0  0
   -4.4292   -3.6267   -3.9082 H   0  0  0  0  0  0  0  0  0  0  0  0
   -3.5541   -5.8824   -2.2033 H   0  0  0  0  0  0  0  0  0  0  0  0
  1  2  1  0
  3  2  1  6
  3  4  1  0
  4  5  1  0
  6  5  1  6
  6  7  1  0
  7  8  1  0
  8  9  1  0
  9 10  1  0
 10 11  1  0
 11 12  1  0
 12 13  1  0
 13 14  1  0
 14 15  1  0
 15 16  1  0
 16 17  1  0
  9 18  1  1
  9 19  1  0
  6 20  1  0
 20 21  1  0
 21 22  1  0
 22 23  1  0
 23 24  2  0
 24 25  1  0
 25 26  1  0
 26 27  1  0
 27 28  1  0
 28 29  1  0
 29 30  1  0
 28 31  1  0
 31 32  1  0
 32 33  1  0
 33 34  1  0
 25 35  2  0
 35 36  1  0
 36 37  2  0
 37 38  1  0
  8  3  1  0
 17 12  1  0
 20 30  1  1
 34 32  1  0
 21  3  1  0
 37 23  1  0
 27  6  1  0
 24 20  1  0
  1 39  1  0
  1 40  1  0
  1 41  1  0
  4 42  1  0
  4 43  1  0
  5 44  1  0
  5 45  1  0
  7 46  1  0
  7 47  1  0
  8 48  1  1
 10 49  1  0
 10 50  1  0
 11 51  1  0
 11 52  1  0
 12 53  1  0
 13 54  1  0
 13 55  1  0
 14 56  1  0
 14 57  1  0
 15 58  1  0
 15 59  1  0
 16 60  1  0
 16 61  1  0
 17 62  1  0
 17 63  1  0
 18 64  1  0
 19 65  1  0
 19 66  1  0
 19 67  1  0
 21 68  1  1
 26 69  1  0
 26 70  1  0
 27 71  1  6
 29 72  1  0
 29 73  1  0
 30 74  1  0
 30 75  1  0
 31 76  1  0
 31 77  1  0
 32 78  1  0
 33 79  1  0
 33 80  1  0
 34 81  1  0
 34 82  1  0
 35 83  1  0
 36 84  1  0
 38 85  1  0
M  END
>  <Ligand ID>  (1) 
LIG0005091

>  <Ligand>  (1) 
CHEMBL2338734

>  <SMILES>  (1) 
CO[C@]12CC[C@]3(C[C@@H]1[C@](CCC1CCCCC1)(O)C)[C@@]14[C@H]2Oc2c4c(C[C@H]3N(CC1)CC1CC1)ccc2O

>  <CID>  (1) 
71624779.0

>  <ChEMBL ID>  (1) 
nan

>  <InChiKey>  (1) 
YYGPGGFPRRXHSI-GIZYTINFSA-N

>  <InChi>  (1) 
InChI=1S/C33H47NO4/c1-30(36,13-12-21-6-4-3-5-7-21)25-19-31-14-15-33(25,37-2)29-32(31)16-17-34(20-22-8-9-22)26(31)18-23-10-11-24(35)28(38-29)27(23)32/h10-11,21-22,25-26,29,35-36H,3-9,12-20H2,1-2H3/t25-,26-,29-,30+,31-,32+,33-/m1/s1

>  <IUPAC Name>  (1) 
(1S,2S,6R,14R,15R,16R)-16-[(2S)-4-cyclohexyl-2-hydroxybutan-2-yl]-5-(cyclopropylmethyl)-15-methoxy-13-oxa-5-azahexacyclo[13.2.2.12,8.01,6.02,14.012,20]icosa-8(20),9,11-trien-11-ol

$$$$
