
     RDKit          3D

 58 62  0  0  0  0  0  0  0  0999 V2000
    7.1811   -0.3173    0.3613 C   0  0  0  0  0  0  0  0  0  0  0  0
    6.8383   -1.5912    0.8632 O   0  0  0  0  0  0  0  0  0  0  0  0
    5.6374   -2.1534    0.4682 C   0  0  0  0  0  0  0  0  0  0  0  0
    5.3148   -3.4163    0.9740 C   0  0  0  0  0  0  0  0  0  0  0  0
    4.1263   -4.0371    0.6179 C   0  0  0  0  0  0  0  0  0  0  0  0
    3.2507   -3.4074   -0.2425 C   0  0  0  0  0  0  0  0  0  0  0  0
    3.5406   -2.1639   -0.7564 C   0  0  0  0  0  0  0  0  0  0  0  0
    4.7423   -1.5571   -0.3850 C   0  0  0  0  0  0  0  0  0  0  0  0
    2.6521   -1.4230   -1.6832 C   0  0  0  0  0  0  0  0  0  0  0  0
    1.7840   -0.5214   -0.9286 C   0  0  0  0  0  0  0  0  0  0  0  0
    2.0900    0.8453   -0.8944 C   0  0  0  0  0  0  0  0  0  0  0  0
    1.3176    1.7482   -0.1977 C   0  0  0  0  0  0  0  0  0  0  0  0
    0.2401    1.3098    0.4682 N   0  0  0  0  0  0  0  0  0  0  0  0
   -0.0805    0.0272    0.4591 N   0  0  0  0  0  0  0  0  0  0  0  0
    0.6628   -0.8968   -0.2209 C   0  0  0  0  0  0  0  0  0  0  0  0
    0.3225   -2.0985   -0.2022 O   0  0  0  0  0  0  0  0  0  0  0  0
   -1.2488   -0.3834    1.1918 C   0  0  0  0  0  0  0  0  0  0  0  0
   -2.4816   -0.3397    0.3572 C   0  0  0  0  0  0  0  0  0  0  0  0
   -2.3602    0.0297   -0.8199 O   0  0  0  0  0  0  0  0  0  0  0  0
   -3.7195   -0.7119    0.9213 N   0  0  0  0  0  0  0  0  0  0  0  0
   -4.9666   -0.7252    0.2721 C   0  0  0  0  0  0  0  0  0  0  0  0
   -5.2033   -0.3723   -1.0318 C   0  0  0  0  0  0  0  0  0  0  0  0
   -6.4635   -0.4132   -1.5989 C   0  0  0  0  0  0  0  0  0  0  0  0
   -7.5589   -0.8125   -0.8841 C   0  0  0  0  0  0  0  0  0  0  0  0
   -7.3311   -1.1746    0.4459 C   0  0  0  0  0  0  0  0  0  0  0  0
   -6.0728   -1.1319    1.0061 C   0  0  0  0  0  0  0  0  0  0  0  0
   -8.5683   -1.5303    0.9363 O   0  0  0  0  0  0  0  0  0  0  0  0
   -9.4859   -1.6665   -0.1383 C   0  0  0  0  0  0  0  0  0  0  0  0
   -8.8851   -0.9399   -1.2013 O   0  0  0  0  0  0  0  0  0  0  0  0
    1.6103    3.1685   -0.1430 C   0  0  0  0  0  0  0  0  0  0  0  0
    0.7792    3.9933    0.5805 C   0  0  0  0  0  0  0  0  0  0  0  0
    0.9869    5.3597    0.6862 C   0  0  0  0  0  0  0  0  0  0  0  0
    2.0799    5.8982    0.0304 C   0  0  0  0  0  0  0  0  0  0  0  0
    2.9203    5.1069   -0.6935 C   0  0  0  0  0  0  0  0  0  0  0  0
    2.6825    3.7590   -0.7750 C   0  0  0  0  0  0  0  0  0  0  0  0
    2.2570    7.2405    0.1532 F   0  0  0  0  0  0  0  0  0  0  0  0
    8.2612   -0.1249    0.5359 H   0  0  0  0  0  0  0  0  0  0  0  0
    6.5535    0.4740    0.8167 H   0  0  0  0  0  0  0  0  0  0  0  0
    6.9681   -0.2923   -0.7422 H   0  0  0  0  0  0  0  0  0  0  0  0
    6.0033   -3.9129    1.6514 H   0  0  0  0  0  0  0  0  0  0  0  0
    3.9506   -5.0099    1.0501 H   0  0  0  0  0  0  0  0  0  0  0  0
    2.3341   -3.9087   -0.5098 H   0  0  0  0  0  0  0  0  0  0  0  0
    4.9642   -0.5897   -0.7860 H   0  0  0  0  0  0  0  0  0  0  0  0
    1.9941   -2.1512   -2.2232 H   0  0  0  0  0  0  0  0  0  0  0  0
    3.2757   -0.8411   -2.3868 H   0  0  0  0  0  0  0  0  0  0  0  0
    2.9504    1.1667   -1.4315 H   0  0  0  0  0  0  0  0  0  0  0  0
   -1.3570    0.1696    2.1333 H   0  0  0  0  0  0  0  0  0  0  0  0
   -1.1132   -1.4567    1.4560 H   0  0  0  0  0  0  0  0  0  0  0  0
   -3.6849   -1.0091    1.9415 H   0  0  0  0  0  0  0  0  0  0  0  0
   -4.4046   -0.0459   -1.6703 H   0  0  0  0  0  0  0  0  0  0  0  0
   -6.6084   -0.1265   -2.6315 H   0  0  0  0  0  0  0  0  0  0  0  0
   -6.0042   -1.4340    2.0480 H   0  0  0  0  0  0  0  0  0  0  0  0
  -10.4605   -1.2161    0.0480 H   0  0  0  0  0  0  0  0  0  0  0  0
   -9.5756   -2.7169   -0.5000 H   0  0  0  0  0  0  0  0  0  0  0  0
   -0.0808    3.5965    1.1011 H   0  0  0  0  0  0  0  0  0  0  0  0
    0.3091    5.9928    1.2689 H   0  0  0  0  0  0  0  0  0  0  0  0
    3.7709    5.5814   -1.1939 H   0  0  0  0  0  0  0  0  0  0  0  0
    3.3629    3.1538   -1.3545 H   0  0  0  0  0  0  0  0  0  0  0  0
  1  2  1  0
  2  3  1  0
  3  4  2  0
  4  5  1  0
  5  6  2  0
  6  7  1  0
  7  8  2  0
  7  9  1  0
  9 10  1  0
 10 11  2  0
 11 12  1  0
 12 13  2  0
 13 14  1  0
 14 15  1  0
 15 16  2  0
 14 17  1  0
 17 18  1  0
 18 19  2  0
 18 20  1  0
 20 21  1  0
 21 22  2  0
 22 23  1  0
 23 24  2  0
 24 25  1  0
 25 26  2  0
 25 27  1  0
 27 28  1  0
 28 29  1  0
 12 30  1  0
 30 31  2  0
 31 32  1  0
 32 33  2  0
 33 34  1  0
 34 35  2  0
 33 36  1  0
  8  3  1  0
 15 10  1  0
 26 21  1  0
 35 30  1  0
 29 24  1  0
  1 37  1  0
  1 38  1  0
  1 39  1  0
  4 40  1  0
  5 41  1  0
  6 42  1  0
  8 43  1  0
  9 44  1  0
  9 45  1  0
 11 46  1  0
 17 47  1  0
 17 48  1  0
 20 49  1  0
 22 50  1  0
 23 51  1  0
 26 52  1  0
 28 53  1  0
 28 54  1  0
 31 55  1  0
 32 56  1  0
 34 57  1  0
 35 58  1  0
M  END
>  <Ligand ID>  (1) 
LIG0004847

>  <Ligand>  (1) 
CHEMBL2391274

>  <SMILES>  (1) 
COc1cccc(c1)Cc1cc(nn(c1=O)CC(=O)Nc1ccc2c(c1)OCO2)c1ccc(cc1)F

>  <CID>  (1) 
71698797.0

>  <ChEMBL ID>  (1) 
nan

>  <InChiKey>  (1) 
HOFRZHWJGXDJID-UHFFFAOYSA-N

>  <InChi>  (1) 
InChI=1S/C27H22FN3O5/c1-34-22-4-2-3-17(12-22)11-19-13-23(18-5-7-20(28)8-6-18)30-31(27(19)33)15-26(32)29-21-9-10-24-25(14-21)36-16-35-24/h2-10,12-14H,11,15-16H2,1H3,(H,29,32)

>  <IUPAC Name>  (1) 
N-(1,3-benzodioxol-5-yl)-2-[3-(4-fluorophenyl)-5-[(3-methoxyphenyl)methyl]-6-oxopyridazin-1-yl]acetamide

$$$$
