
     RDKit          3D

129129  0  0  0  0  0  0  0  0999 V2000
  -11.9766    0.4846    1.9033 C   0  0  0  0  0  0  0  0  0  0  0  0
  -10.6100    0.4627    2.4561 C   0  0  0  0  0  0  0  0  0  0  0  0
   -9.4886    1.0804    1.7796 C   0  0  0  0  0  0  0  0  0  0  0  0
   -9.0206    0.6963    0.4515 C   0  0  1  0  0  0  0  0  0  0  0  0
   -9.9398    0.8268   -0.6915 C   0  0  0  0  0  0  0  0  0  0  0  0
   -9.5529    1.5925   -1.6412 O   0  0  0  0  0  0  0  0  0  0  0  0
  -11.1578    0.2219   -0.8560 O   0  0  0  0  0  0  0  0  0  0  0  0
   -7.8459    1.4631    0.0330 N   0  0  0  0  0  0  0  0  0  0  0  0
   -6.6609    0.8548   -0.4323 C   0  0  0  0  0  0  0  0  0  0  0  0
   -6.6790   -0.4185   -0.4677 O   0  0  0  0  0  0  0  0  0  0  0  0
   -5.4437    1.5211   -0.8659 C   0  0  2  0  0  0  0  0  0  0  0  0
   -5.5179    2.6129   -1.8532 C   0  0  0  0  0  0  0  0  0  0  0  0
   -6.3209    3.7774   -1.3960 C   0  0  0  0  0  0  0  0  0  0  0  0
   -5.8934    2.1488   -3.2459 C   0  0  0  0  0  0  0  0  0  0  0  0
   -4.0746    3.1383   -2.0043 C   0  0  0  0  0  0  0  0  0  0  0  0
   -4.4060    0.5939   -1.3040 N   0  0  0  0  0  0  0  0  0  0  0  0
   -3.2782    0.2561   -0.5110 C   0  0  0  0  0  0  0  0  0  0  0  0
   -3.2302    0.7978    0.6349 O   0  0  0  0  0  0  0  0  0  0  0  0
   -2.1959   -0.6313   -0.8842 C   0  0  2  0  0  0  0  0  0  0  0  0
   -2.5368   -1.9753   -1.4475 C   0  0  0  0  0  0  0  0  0  0  0  0
   -3.3210   -2.8640   -0.5985 C   0  0  0  0  0  0  0  0  0  0  0  0
   -2.7178   -3.6748    0.3724 C   0  0  0  0  0  0  0  0  0  0  0  0
   -3.4827   -4.5197    1.1327 C   0  0  0  0  0  0  0  0  0  0  0  0
   -4.8519   -4.6455    1.0195 C   0  0  0  0  0  0  0  0  0  0  0  0
   -5.4510   -3.8383    0.0527 C   0  0  0  0  0  0  0  0  0  0  0  0
   -4.6887   -2.9942   -0.7075 C   0  0  0  0  0  0  0  0  0  0  0  0
   -5.6271   -5.4864    1.7736 O   0  0  0  0  0  0  0  0  0  0  0  0
   -1.2169   -0.8552    0.1686 N   0  0  0  0  0  0  0  0  0  0  0  0
    0.1477   -0.6448   -0.1845 C   0  0  0  0  0  0  0  0  0  0  0  0
    0.5133   -0.2857   -1.3315 O   0  0  0  0  0  0  0  0  0  0  0  0
    1.1509   -0.8813    0.9059 C   0  0  2  0  0  0  0  0  0  0  0  0
    1.1035    0.3064    1.8195 C   0  0  0  0  0  0  0  0  0  0  0  0
    2.1537    1.2285    1.1799 C   0  0  0  0  0  0  0  0  0  0  0  0
    3.2761    0.2573    0.8308 C   0  0  0  0  0  0  0  0  0  0  0  0
    2.5044   -0.8766    0.3887 N   0  0  0  0  0  0  0  0  0  0  0  0
    2.9536   -1.9518   -0.4719 C   0  0  0  0  0  0  0  0  0  0  0  0
    2.1237   -2.8874   -0.7953 O   0  0  0  0  0  0  0  0  0  0  0  0
    4.2932   -2.0853   -1.0241 C   0  0  1  0  0  0  0  0  0  0  0  0
    5.2703   -1.1178   -0.6838 N   0  0  0  0  0  0  0  0  0  0  0  0
    5.9459   -0.3399   -1.6967 C   0  0  0  0  0  0  0  0  0  0  0  0
    5.6069   -0.5745   -2.8846 O   0  0  0  0  0  0  0  0  0  0  0  0
    6.9595    0.6537   -1.3437 C   0  0  2  0  0  0  0  0  0  0  0  0
    6.4948    1.7699   -0.4649 C   0  0  0  0  0  0  0  0  0  0  0  0
    7.7182    2.6641   -0.2315 C   0  0  0  0  0  0  0  0  0  0  0  0
    7.4099    3.8375    0.6372 C   0  0  0  0  0  0  0  0  0  0  0  0
    8.5962    4.6234    0.8153 N   0  0  0  0  0  0  0  0  0  0  0  0
    8.3270    6.0339    0.9646 C   0  0  0  0  0  0  0  0  0  0  0  0
    9.2825    4.1280    2.0104 C   0  0  0  0  0  0  0  0  0  0  0  0
    9.5485    4.4688   -0.2910 C   0  0  0  0  0  0  0  0  0  0  0  0
    7.4663    1.2816   -2.6478 C   0  0  0  0  0  0  0  0  0  0  0  0
    4.8465   -3.4445   -0.6191 C   0  0  0  0  0  0  0  0  0  0  0  0
    6.2387   -3.6749   -1.1487 C   0  0  0  0  0  0  0  0  0  0  0  0
    6.6928   -5.0565   -0.6783 C   0  0  0  0  0  0  0  0  0  0  0  0
    6.6892   -5.0972    0.7715 N   0  0  0  0  0  0  0  0  0  0  0  0
    6.2948   -6.2029    1.3172 C   0  0  0  0  0  0  0  0  0  0  0  0
    5.8791   -7.3379    0.5750 N   0  0  0  0  0  0  0  0  0  0  0  0
    6.2953   -6.2296    2.7441 N   0  0  0  0  0  0  0  0  0  0  0  0
  -10.6869    1.0309    3.8951 C   0  0  0  0  0  0  0  0  0  0  0  0
    0.0000    0.0000    0.0000 Cl  0  0  0  0  0  0  0  0  0  0  0  0
  -12.2559    1.3840    1.3029 H   0  0  0  0  0  0  0  0  0  0  0  0
  -12.3213   -0.4785    1.4631 H   0  0  0  0  0  0  0  0  0  0  0  0
  -12.6934    0.5853    2.7871 H   0  0  0  0  0  0  0  0  0  0  0  0
  -10.4084   -0.6405    2.6780 H   0  0  0  0  0  0  0  0  0  0  0  0
   -8.5931    0.9662    2.4729 H   0  0  0  0  0  0  0  0  0  0  0  0
   -9.6951    2.2074    1.7290 H   0  0  0  0  0  0  0  0  0  0  0  0
   -8.6508   -0.3768    0.4830 H   0  0  0  0  0  0  0  0  0  0  0  0
  -11.4921   -0.1210   -1.7700 H   0  0  0  0  0  0  0  0  0  0  0  0
   -7.9306    2.4896    0.1039 H   0  0  0  0  0  0  0  0  0  0  0  0
   -5.0006    1.9568    0.0865 H   0  0  0  0  0  0  0  0  0  0  0  0
   -6.1870    3.9753   -0.3143 H   0  0  0  0  0  0  0  0  0  0  0  0
   -5.9240    4.7529   -1.8568 H   0  0  0  0  0  0  0  0  0  0  0  0
   -7.3541    3.7433   -1.7557 H   0  0  0  0  0  0  0  0  0  0  0  0
   -6.5115    1.2386   -3.2506 H   0  0  0  0  0  0  0  0  0  0  0  0
   -5.0121    1.9449   -3.8882 H   0  0  0  0  0  0  0  0  0  0  0  0
   -6.4352    2.9978   -3.7406 H   0  0  0  0  0  0  0  0  0  0  0  0
   -3.5843    3.1998   -1.0140 H   0  0  0  0  0  0  0  0  0  0  0  0
   -4.0904    4.1255   -2.5314 H   0  0  0  0  0  0  0  0  0  0  0  0
   -3.5154    2.4118   -2.6506 H   0  0  0  0  0  0  0  0  0  0  0  0
   -4.4803    0.1381   -2.2634 H   0  0  0  0  0  0  0  0  0  0  0  0
   -1.6544   -0.1075   -1.7520 H   0  0  0  0  0  0  0  0  0  0  0  0
   -3.0066   -1.8425   -2.4639 H   0  0  0  0  0  0  0  0  0  0  0  0
   -1.5477   -2.4635   -1.7012 H   0  0  0  0  0  0  0  0  0  0  0  0
   -1.6386   -3.5881    0.4751 H   0  0  0  0  0  0  0  0  0  0  0  0
   -3.0120   -5.1565    1.8972 H   0  0  0  0  0  0  0  0  0  0  0  0
   -6.5284   -3.9111   -0.0634 H   0  0  0  0  0  0  0  0  0  0  0  0
   -5.1517   -2.3677   -1.4806 H   0  0  0  0  0  0  0  0  0  0  0  0
   -5.3741   -6.4242    2.0421 H   0  0  0  0  0  0  0  0  0  0  0  0
   -1.5314   -1.1532    1.1126 H   0  0  0  0  0  0  0  0  0  0  0  0
    0.9233   -1.8337    1.4411 H   0  0  0  0  0  0  0  0  0  0  0  0
    0.1232    0.7967    1.8856 H   0  0  0  0  0  0  0  0  0  0  0  0
    1.5175    0.0413    2.8163 H   0  0  0  0  0  0  0  0  0  0  0  0
    1.7728    1.6419    0.2250 H   0  0  0  0  0  0  0  0  0  0  0  0
    2.4591    2.0455    1.8285 H   0  0  0  0  0  0  0  0  0  0  0  0
    3.9094    0.0422    1.7040 H   0  0  0  0  0  0  0  0  0  0  0  0
    3.8286    0.6593   -0.0335 H   0  0  0  0  0  0  0  0  0  0  0  0
    4.1816   -2.0824   -2.1453 H   0  0  0  0  0  0  0  0  0  0  0  0
    5.5679   -0.9117    0.2944 H   0  0  0  0  0  0  0  0  0  0  0  0
    7.8349    0.1824   -0.8495 H   0  0  0  0  0  0  0  0  0  0  0  0
    5.7284    2.3516   -1.0440 H   0  0  0  0  0  0  0  0  0  0  0  0
    6.1371    1.4415    0.5149 H   0  0  0  0  0  0  0  0  0  0  0  0
    8.1069    3.0070   -1.1899 H   0  0  0  0  0  0  0  0  0  0  0  0
    8.4949    2.0684    0.2754 H   0  0  0  0  0  0  0  0  0  0  0  0
    7.0471    3.5613    1.6495 H   0  0  0  0  0  0  0  0  0  0  0  0
    6.6509    4.4551    0.1224 H   0  0  0  0  0  0  0  0  0  0  0  0
    8.1991    6.4719   -0.0376 H   0  0  0  0  0  0  0  0  0  0  0  0
    9.2261    6.5228    1.4262 H   0  0  0  0  0  0  0  0  0  0  0  0
    7.4251    6.2526    1.5489 H   0  0  0  0  0  0  0  0  0  0  0  0
    8.6329    4.1304    2.8857 H   0  0  0  0  0  0  0  0  0  0  0  0
    9.5590    3.0708    1.7620 H   0  0  0  0  0  0  0  0  0  0  0  0
   10.2014    4.7335    2.1260 H   0  0  0  0  0  0  0  0  0  0  0  0
   10.4442    5.0907   -0.0204 H   0  0  0  0  0  0  0  0  0  0  0  0
    9.9237    3.4443   -0.3926 H   0  0  0  0  0  0  0  0  0  0  0  0
    9.1273    4.8769   -1.2307 H   0  0  0  0  0  0  0  0  0  0  0  0
    6.8130    2.1654   -2.8278 H   0  0  0  0  0  0  0  0  0  0  0  0
    8.5165    1.5664   -2.5743 H   0  0  0  0  0  0  0  0  0  0  0  0
    7.3439    0.5363   -3.4872 H   0  0  0  0  0  0  0  0  0  0  0  0
    4.9048   -3.5296    0.4873 H   0  0  0  0  0  0  0  0  0  0  0  0
    4.1969   -4.2625   -0.9856 H   0  0  0  0  0  0  0  0  0  0  0  0
    6.2935   -3.6893   -2.2392 H   0  0  0  0  0  0  0  0  0  0  0  0
    6.9516   -2.9179   -0.7797 H   0  0  0  0  0  0  0  0  0  0  0  0
    7.7083   -5.2003   -1.1061 H   0  0  0  0  0  0  0  0  0  0  0  0
    6.0330   -5.8266   -1.1189 H   0  0  0  0  0  0  0  0  0  0  0  0
    4.9405   -7.4888    0.1991 H   0  0  0  0  0  0  0  0  0  0  0  0
    6.6082   -8.0748    0.4057 H   0  0  0  0  0  0  0  0  0  0  0  0
    5.4259   -6.0089    3.3004 H   0  0  0  0  0  0  0  0  0  0  0  0
    7.1884   -6.4749    3.2225 H   0  0  0  0  0  0  0  0  0  0  0  0
  -11.5601    0.5289    4.3644 H   0  0  0  0  0  0  0  0  0  0  0  0
  -10.9520    2.1068    3.8785 H   0  0  0  0  0  0  0  0  0  0  0  0
   -9.7636    0.8010    4.4430 H   0  0  0  0  0  0  0  0  0  0  0  0
  1  2  1  0
  2  3  1  0
  3  4  1  0
  4  5  1  0
  5  6  2  0
  5  7  1  0
  4  8  1  0
  8  9  1  0
  9 10  2  0
  9 11  1  0
 11 12  1  0
 12 13  1  0
 12 14  1  0
 12 15  1  0
 11 16  1  0
 16 17  1  0
 17 18  2  0
 17 19  1  0
 19 20  1  0
 20 21  1  0
 21 22  2  0
 22 23  1  0
 23 24  2  0
 24 25  1  0
 25 26  2  0
 24 27  1  0
 19 28  1  0
 28 29  1  0
 29 30  2  0
 29 31  1  0
 31 32  1  0
 32 33  1  0
 33 34  1  0
 34 35  1  0
 35 36  1  0
 36 37  2  0
 36 38  1  0
 38 39  1  0
 39 40  1  0
 40 41  2  0
 40 42  1  0
 42 43  1  0
 43 44  1  0
 44 45  1  0
 45 46  1  0
 46 47  1  0
 46 48  1  0
 46 49  1  0
 42 50  1  0
 38 51  1  0
 51 52  1  0
 52 53  1  0
 53 54  1  0
 54 55  2  3
 55 56  1  0
 55 57  1  0
  2 58  1  0
 26 21  1  0
 35 31  1  0
  1 60  1  0
  1 61  1  0
  1 62  1  0
  2 63  1  0
  3 64  1  0
  3 65  1  0
  4 66  1  1
  7 67  1  0
  8 68  1  0
 11 69  1  1
 13 70  1  0
 13 71  1  0
 13 72  1  0
 14 73  1  0
 14 74  1  0
 14 75  1  0
 15 76  1  0
 15 77  1  0
 15 78  1  0
 16 79  1  0
 19 80  1  6
 20 81  1  0
 20 82  1  0
 22 83  1  0
 23 84  1  0
 25 85  1  0
 26 86  1  0
 27 87  1  0
 28 88  1  0
 31 89  1  1
 32 90  1  0
 32 91  1  0
 33 92  1  0
 33 93  1  0
 34 94  1  0
 34 95  1  0
 38 96  1  6
 39 97  1  0
 42 98  1  1
 43 99  1  0
 43100  1  0
 44101  1  0
 44102  1  0
 45103  1  0
 45104  1  0
 47105  1  0
 47106  1  0
 47107  1  0
 48108  1  0
 48109  1  0
 48110  1  0
 49111  1  0
 49112  1  0
 49113  1  0
 50114  1  0
 50115  1  0
 50116  1  0
 51117  1  0
 51118  1  0
 52119  1  0
 52120  1  0
 53121  1  0
 53122  1  0
 56123  1  0
 56124  1  0
 57125  1  0
 57126  1  0
 58127  1  0
 58128  1  0
 58129  1  0
M  CHG  2  46   1  59  -1
M  END
>  <Ligand ID>  (1) 
LIG0002140

>  <Ligand>  (1) 
CHEMBL1172376

>  <SMILES>  (1) 
CC(C[C@@H](C(=O)O)NC(=O)[C@H](C(C)(C)C)NC(=O)[C@H](Cc1ccc(cc1)O)NC(=O)[C@@H]1CCCN1C(=O)[C@@H](NC(=O)[C@H](CCC[N+](C)(C)C)C)CCCN=C(N)N)C.[Cl-]

>  <CID>  (1) 
49798969.0

>  <ChEMBL ID>  (1) 
nan

>  <InChiKey>  (1) 
DTAHXYZYSFSODV-QUWQNPMZSA-N

>  <InChi>  (1) 
InChI=1S/C41H69N9O8.ClH/c1-25(2)23-31(39(57)58)47-37(55)33(41(4,5)6)48-35(53)30(24-27-16-18-28(51)19-17-27)46-36(54)32-15-11-21-49(32)38(56)29(14-10-20-44-40(42)43)45-34(52)26(3)13-12-22-50(7,8)9;/h16-19,25-26,29-33H,10-15,20-24H2,1-9H3,(H9-,42,43,44,45,46,47,48,51,52,53,54,55,57,58);1H/t26-,29-,30-,31-,32-,33+;/m0./s1

>  <IUPAC Name>  (1) 
[(4S)-5-[[(2S)-1-[(2S)-2-[[(2S)-1-[[(2S)-1-[[(1S)-1-carboxy-3-methylbutyl]amino]-3,3-dimethyl-1-oxobutan-2-yl]amino]-3-(4-hydroxyphenyl)-1-oxopropan-2-yl]carbamoyl]pyrrolidin-1-yl]-5-(diaminomethylideneamino)-1-oxopentan-2-yl]amino]-4-methyl-5-oxopentyl]-trimethylazanium;chloride

$$$$
