
     RDKit          3D

 33 34  0  0  0  0  0  0  0  0999 V2000
    2.2675   -3.5100    4.1445 N   0  0  0  0  0  0  0  0  0  0  0  0
    1.9823   -2.2523    3.4847 C   0  0  0  0  0  0  0  0  0  0  0  0
    0.8697   -2.4420    2.4910 C   0  0  0  0  0  0  0  0  0  0  0  0
    0.5087   -1.2094    1.7673 C   0  0  0  0  0  0  0  0  0  0  0  0
   -0.4681   -0.3249    2.2400 C   0  0  0  0  0  0  0  0  0  0  0  0
   -0.7730    0.8269    1.5184 C   0  0  0  0  0  0  0  0  0  0  0  0
   -0.1173    1.1209    0.3202 C   0  0  0  0  0  0  0  0  0  0  0  0
    0.8539    0.2247   -0.1318 C   0  0  0  0  0  0  0  0  0  0  0  0
    1.1623   -0.9267    0.5839 C   0  0  0  0  0  0  0  0  0  0  0  0
    1.9382    0.5577   -1.9031 I   0  0  0  0  0  0  0  0  0  0  0  0
   -0.4101    2.2628   -0.4065 O   0  0  0  0  0  0  0  0  0  0  0  0
   -0.9241    2.2653   -1.6910 C   0  0  0  0  0  0  0  0  0  0  0  0
   -1.3398    1.1341   -2.3572 C   0  0  0  0  0  0  0  0  0  0  0  0
   -1.8463    1.1688   -3.6388 C   0  0  0  0  0  0  0  0  0  0  0  0
   -1.9487    2.3861   -4.2990 C   0  0  0  0  0  0  0  0  0  0  0  0
   -1.5324    3.5410   -3.6378 C   0  0  0  0  0  0  0  0  0  0  0  0
   -1.0253    3.4643   -2.3414 C   0  0  0  0  0  0  0  0  0  0  0  0
   -2.4529    2.4216   -5.5751 O   0  0  0  0  0  0  0  0  0  0  0  0
    2.3589   -3.3888    5.1807 H   0  0  0  0  0  0  0  0  0  0  0  0
    1.4990   -4.1863    3.9298 H   0  0  0  0  0  0  0  0  0  0  0  0
    3.1254   -3.9460    3.7438 H   0  0  0  0  0  0  0  0  0  0  0  0
    2.8745   -1.8701    2.9549 H   0  0  0  0  0  0  0  0  0  0  0  0
    1.6903   -1.4984    4.2442 H   0  0  0  0  0  0  0  0  0  0  0  0
    1.1676   -3.2590    1.7992 H   0  0  0  0  0  0  0  0  0  0  0  0
   -0.0091   -2.8634    3.0573 H   0  0  0  0  0  0  0  0  0  0  0  0
   -0.9748   -0.5645    3.1782 H   0  0  0  0  0  0  0  0  0  0  0  0
   -1.5381    1.4989    1.9092 H   0  0  0  0  0  0  0  0  0  0  0  0
    1.9283   -1.6268    0.2198 H   0  0  0  0  0  0  0  0  0  0  0  0
   -1.2885    0.1653   -1.8819 H   0  0  0  0  0  0  0  0  0  0  0  0
   -2.1655    0.2368   -4.1304 H   0  0  0  0  0  0  0  0  0  0  0  0
   -1.6168    4.4880   -4.1628 H   0  0  0  0  0  0  0  0  0  0  0  0
   -0.7262    4.4189   -1.9079 H   0  0  0  0  0  0  0  0  0  0  0  0
   -3.0698    1.6865   -5.9049 H   0  0  0  0  0  0  0  0  0  0  0  0
  1  2  1  0
  2  3  1  0
  3  4  1  0
  4  5  2  0
  5  6  1  0
  6  7  2  0
  7  8  1  0
  8  9  2  0
  8 10  1  0
  7 11  1  0
 11 12  1  0
 12 13  2  0
 13 14  1  0
 14 15  2  0
 15 16  1  0
 16 17  2  0
 15 18  1  0
  9  4  1  0
 17 12  1  0
  1 19  1  0
  1 20  1  0
  1 21  1  0
  2 22  1  0
  2 23  1  0
  3 24  1  0
  3 25  1  0
  5 26  1  0
  6 27  1  0
  9 28  1  0
 13 29  1  0
 14 30  1  0
 16 31  1  0
 17 32  1  0
 18 33  1  0
M  CHG  1   1   1
M  END
>  <Ligand ID>  (1) 
LIG0005965

>  <Ligand>  (1) 
T1AM

>  <SMILES>  (1) 
[NH3+]CCc1ccc(c(c1)I)Oc1ccc(cc1)O

>  <CID>  (1) 
25844418.0

>  <ChEMBL ID>  (1) 
nan

>  <InChiKey>  (1) 
XIINYOJWNGOUPF-UHFFFAOYSA-O

>  <InChi>  (1) 
InChI=1S/C14H14INO2/c15-13-9-10(7-8-16)1-6-14(13)18-12-4-2-11(17)3-5-12/h1-6,9,17H,7-8,16H2/p+1

>  <IUPAC Name>  (1) 
2-[4-(4-hydroxyphenoxy)-3-iodophenyl]ethylazanium

$$$$
