
     RDKit          3D

 46 48  0  0  0  0  0  0  0  0999 V2000
   -4.9130    1.3869    1.5992 C   0  0  0  0  0  0  0  0  0  0  0  0
   -5.7804    0.3914    0.9062 C   0  0  0  0  0  0  0  0  0  0  0  0
   -5.2472   -0.1429   -0.3813 C   0  0  0  0  0  0  0  0  0  0  0  0
   -4.0006   -0.8431   -0.3110 N   0  0  0  0  0  0  0  0  0  0  0  0
   -2.7151   -0.3320   -0.1700 C   0  0  0  0  0  0  0  0  0  0  0  0
   -2.3778    0.9728   -0.1107 N   0  0  0  0  0  0  0  0  0  0  0  0
   -1.1150    1.4215    0.0001 C   0  0  0  0  0  0  0  0  0  0  0  0
   -0.8684    2.8358    0.0550 N   0  0  0  0  0  0  0  0  0  0  0  0
   -0.0741    0.5712    0.0608 N   0  0  0  0  0  0  0  0  0  0  0  0
   -0.3372   -0.7365    0.0073 C   0  0  0  0  0  0  0  0  0  0  0  0
   -1.6195   -1.2076   -0.1056 C   0  0  0  0  0  0  0  0  0  0  0  0
   -1.5318   -2.5511   -0.1323 N   0  0  0  0  0  0  0  0  0  0  0  0
   -0.2545   -2.9123   -0.0407 C   0  0  0  0  0  0  0  0  0  0  0  0
    0.5002   -1.7798    0.0472 N   0  0  0  0  0  0  0  0  0  0  0  0
    1.9163   -1.7917    0.1586 C   0  0  2  0  0  0  0  0  0  0  0  0
    2.4234   -0.7529    0.9294 O   0  0  0  0  0  0  0  0  0  0  0  0
    3.7677   -0.6761    0.6983 C   0  0  1  0  0  0  0  0  0  0  0  0
    4.0423   -1.3094   -0.6478 C   0  0  2  0  0  0  0  0  0  0  0  0
    2.6354   -1.5412   -1.1602 C   0  0  1  0  0  0  0  0  0  0  0  0
    2.5684   -2.6437   -2.0043 O   0  0  0  0  0  0  0  0  0  0  0  0
    4.6116   -2.5665   -0.4785 O   0  0  0  0  0  0  0  0  0  0  0  0
    4.3079    0.7084    0.6567 C   0  0  0  0  0  0  0  0  0  0  0  0
    5.5351    0.9221    0.4512 O   0  0  0  0  0  0  0  0  0  0  0  0
    3.4682    1.8537    0.8462 N   0  0  0  0  0  0  0  0  0  0  0  0
    3.9923    3.2035    0.8061 C   0  0  0  0  0  0  0  0  0  0  0  0
   -4.6265    2.1578    0.8743 H   0  0  0  0  0  0  0  0  0  0  0  0
   -5.5065    1.8421    2.4471 H   0  0  0  0  0  0  0  0  0  0  0  0
   -4.0475    0.8633    2.0437 H   0  0  0  0  0  0  0  0  0  0  0  0
   -6.0016   -0.4962    1.5487 H   0  0  0  0  0  0  0  0  0  0  0  0
   -6.7712    0.8603    0.6901 H   0  0  0  0  0  0  0  0  0  0  0  0
   -5.1721    0.7047   -1.1154 H   0  0  0  0  0  0  0  0  0  0  0  0
   -6.0670   -0.7917   -0.8062 H   0  0  0  0  0  0  0  0  0  0  0  0
   -4.0813   -1.9118   -0.3768 H   0  0  0  0  0  0  0  0  0  0  0  0
   -1.4193    3.4869    0.6332 H   0  0  0  0  0  0  0  0  0  0  0  0
   -0.0874    3.2733   -0.5145 H   0  0  0  0  0  0  0  0  0  0  0  0
    0.0967   -3.9356   -0.0386 H   0  0  0  0  0  0  0  0  0  0  0  0
    2.2961   -2.7681    0.5312 H   0  0  0  0  0  0  0  0  0  0  0  0
    4.3193   -1.2418    1.4867 H   0  0  0  0  0  0  0  0  0  0  0  0
    4.6371   -0.6560   -1.3074 H   0  0  0  0  0  0  0  0  0  0  0  0
    2.3164   -0.6081   -1.6571 H   0  0  0  0  0  0  0  0  0  0  0  0
    1.7606   -2.5281   -2.5839 H   0  0  0  0  0  0  0  0  0  0  0  0
    4.4251   -2.9401    0.4261 H   0  0  0  0  0  0  0  0  0  0  0  0
    2.4688    1.6686    1.0131 H   0  0  0  0  0  0  0  0  0  0  0  0
    3.7234    3.6802   -0.1363 H   0  0  0  0  0  0  0  0  0  0  0  0
    5.1137    3.1115    0.7997 H   0  0  0  0  0  0  0  0  0  0  0  0
    3.6891    3.7481    1.7159 H   0  0  0  0  0  0  0  0  0  0  0  0
  1  2  1  0
  2  3  1  0
  3  4  1  0
  4  5  1  0
  5  6  2  0
  6  7  1  0
  7  8  1  0
  7  9  2  0
  9 10  1  0
 10 11  2  0
 11 12  1  0
 12 13  2  0
 13 14  1  0
 14 15  1  0
 15 16  1  0
 16 17  1  0
 17 18  1  0
 18 19  1  0
 19 20  1  0
 18 21  1  0
 17 22  1  0
 22 23  2  0
 22 24  1  0
 24 25  1  0
 11  5  1  0
 19 15  1  0
 14 10  1  0
  1 26  1  0
  1 27  1  0
  1 28  1  0
  2 29  1  0
  2 30  1  0
  3 31  1  0
  3 32  1  0
  4 33  1  0
  8 34  1  0
  8 35  1  0
 13 36  1  0
 15 37  1  1
 17 38  1  1
 18 39  1  6
 19 40  1  6
 20 41  1  0
 21 42  1  0
 24 43  1  0
 25 44  1  0
 25 45  1  0
 25 46  1  0
M  END
>  <Ligand ID>  (1) 
LIG0001907

>  <Ligand>  (1) 
CHEMBL3133155

>  <SMILES>  (1) 
CCCNc1nc(N)nc2c1ncn2[C@@H]1O[C@@H]([C@H]([C@H]1O)O)C(=O)NC

>  <CID>  (1) 
76336526.0

>  <ChEMBL ID>  (1) 
nan

>  <InChiKey>  (1) 
UUMNNXVQIQCMFL-QRIDJOKKSA-N

>  <InChi>  (1) 
InChI=1S/C14H21N7O4/c1-3-4-17-10-6-11(20-14(15)19-10)21(5-18-6)13-8(23)7(22)9(25-13)12(24)16-2/h5,7-9,13,22-23H,3-4H2,1-2H3,(H,16,24)(H3,15,17,19,20)/t7-,8+,9-,13+/m0/s1

>  <IUPAC Name>  (1) 
(2S,3S,4R,5R)-5-[2-amino-6-(propylamino)purin-9-yl]-3,4-dihydroxy-N-methyloxolane-2-carboxamide

$$$$
