
     RDKit          3D

 67 71  0  0  0  0  0  0  0  0999 V2000
   -7.9670   -3.2575    0.1796 C   0  0  0  0  0  0  0  0  0  0  0  0
   -7.6573   -1.8062    0.0967 C   0  0  0  0  0  0  0  0  0  0  0  0
   -8.6788   -0.9200   -0.1216 C   0  0  0  0  0  0  0  0  0  0  0  0
   -8.3813    0.4071   -0.1971 C   0  0  0  0  0  0  0  0  0  0  0  0
   -7.0604    0.8585   -0.0537 C   0  0  0  0  0  0  0  0  0  0  0  0
   -6.0148   -0.0090    0.1656 C   0  0  0  0  0  0  0  0  0  0  0  0
   -6.3572   -1.3616    0.2366 C   0  0  0  0  0  0  0  0  0  0  0  0
   -4.6651    0.3478    0.2836 N   0  0  0  0  0  0  0  0  0  0  0  0
   -3.7803   -0.5540    1.0514 C   0  0  0  0  0  0  0  0  0  0  0  0
   -3.0104    0.4015    1.9708 C   0  0  0  0  0  0  0  0  0  0  0  0
   -2.0504    1.0981    1.1338 N   0  0  0  0  0  0  0  0  0  0  0  0
   -2.4967    1.2501   -0.2361 C   0  0  0  0  0  0  0  0  0  0  0  0
   -4.0151    1.4922   -0.2960 C   0  0  0  0  0  0  0  0  0  0  0  0
   -0.8444    0.2569    1.1758 C   0  0  0  0  0  0  0  0  0  0  0  0
    0.2922    0.8535    0.3705 C   0  0  0  0  0  0  0  0  0  0  0  0
    1.4403   -0.1386    0.5079 C   0  0  0  0  0  0  0  0  0  0  0  0
    2.6273    0.2722   -0.2100 N   0  0  0  0  0  0  0  0  0  0  0  0
    3.3547    1.4525    0.0551 C   0  0  0  0  0  0  0  0  0  0  0  0
    2.8926    2.1815    1.0065 O   0  0  0  0  0  0  0  0  0  0  0  0
    4.5782    1.8803   -0.6711 C   0  0  0  0  0  0  0  0  0  0  0  0
    5.6917    0.9915   -0.3636 N   0  0  0  0  0  0  0  0  0  0  0  0
    6.3945    1.2758    0.7523 C   0  0  0  0  0  0  0  0  0  0  0  0
    6.1236    2.2516    1.4925 O   0  0  0  0  0  0  0  0  0  0  0  0
    7.4605    0.4700    1.1106 C   0  0  0  0  0  0  0  0  0  0  0  0
    8.3153    0.5459    2.1855 C   0  0  0  0  0  0  0  0  0  0  0  0
    9.1934   -0.5320    2.0422 C   0  0  0  0  0  0  0  0  0  0  0  0
    8.8223   -1.1964    0.8920 C   0  0  0  0  0  0  0  0  0  0  0  0
    7.7528   -0.5725    0.3216 N   0  0  0  0  0  0  0  0  0  0  0  0
    7.0714   -0.8811   -0.7976 C   0  0  0  0  0  0  0  0  0  0  0  0
    6.0148   -0.0660   -1.1357 C   0  0  0  0  0  0  0  0  0  0  0  0
    5.3242   -0.3368   -2.2527 N   0  0  0  0  0  0  0  0  0  0  0  0
    5.6827   -1.3910   -3.0031 C   0  0  0  0  0  0  0  0  0  0  0  0
    6.7332   -2.2231   -2.6900 C   0  0  0  0  0  0  0  0  0  0  0  0
    7.4622   -1.9724   -1.5509 C   0  0  0  0  0  0  0  0  0  0  0  0
   -6.8199    2.3153   -0.1220 C   0  0  0  0  0  0  0  0  0  0  0  0
   -8.8087   -3.4724   -0.5030 H   0  0  0  0  0  0  0  0  0  0  0  0
   -7.0511   -3.8199   -0.1383 H   0  0  0  0  0  0  0  0  0  0  0  0
   -8.1356   -3.5857    1.2278 H   0  0  0  0  0  0  0  0  0  0  0  0
   -9.6797   -1.3098   -0.2258 H   0  0  0  0  0  0  0  0  0  0  0  0
   -9.1623    1.1329   -0.3651 H   0  0  0  0  0  0  0  0  0  0  0  0
   -5.6146   -2.1395    0.3988 H   0  0  0  0  0  0  0  0  0  0  0  0
   -3.1380   -1.0531    0.3247 H   0  0  0  0  0  0  0  0  0  0  0  0
   -4.3386   -1.2923    1.6433 H   0  0  0  0  0  0  0  0  0  0  0  0
   -3.7251    1.1426    2.3388 H   0  0  0  0  0  0  0  0  0  0  0  0
   -2.5029   -0.1847    2.7432 H   0  0  0  0  0  0  0  0  0  0  0  0
   -2.2817    0.3662   -0.8455 H   0  0  0  0  0  0  0  0  0  0  0  0
   -2.0380    2.1524   -0.6979 H   0  0  0  0  0  0  0  0  0  0  0  0
   -4.1875    2.4495    0.2207 H   0  0  0  0  0  0  0  0  0  0  0  0
   -4.2193    1.5335   -1.3973 H   0  0  0  0  0  0  0  0  0  0  0  0
   -0.5209    0.2349    2.2360 H   0  0  0  0  0  0  0  0  0  0  0  0
   -1.0365   -0.7570    0.7932 H   0  0  0  0  0  0  0  0  0  0  0  0
    0.6083    1.8231    0.7914 H   0  0  0  0  0  0  0  0  0  0  0  0
   -0.0500    0.8988   -0.6846 H   0  0  0  0  0  0  0  0  0  0  0  0
    1.0983   -1.1229    0.1776 H   0  0  0  0  0  0  0  0  0  0  0  0
    1.7089   -0.2268    1.5896 H   0  0  0  0  0  0  0  0  0  0  0  0
    2.9536   -0.3526   -0.9646 H   0  0  0  0  0  0  0  0  0  0  0  0
    4.7964    2.9300   -0.3551 H   0  0  0  0  0  0  0  0  0  0  0  0
    4.3692    1.8878   -1.7499 H   0  0  0  0  0  0  0  0  0  0  0  0
    8.3739    1.2379    3.0003 H   0  0  0  0  0  0  0  0  0  0  0  0
   10.0074   -0.7611    2.7376 H   0  0  0  0  0  0  0  0  0  0  0  0
    9.3244   -2.0803    0.5208 H   0  0  0  0  0  0  0  0  0  0  0  0
    5.0661   -1.5447   -3.9058 H   0  0  0  0  0  0  0  0  0  0  0  0
    6.9431   -3.0477   -3.3556 H   0  0  0  0  0  0  0  0  0  0  0  0
    8.2820   -2.6153   -1.2978 H   0  0  0  0  0  0  0  0  0  0  0  0
   -6.2504    2.6494   -1.0035 H   0  0  0  0  0  0  0  0  0  0  0  0
   -7.8098    2.8531   -0.2062 H   0  0  0  0  0  0  0  0  0  0  0  0
   -6.4092    2.6900    0.8482 H   0  0  0  0  0  0  0  0  0  0  0  0
  1  2  1  0
  2  3  2  0
  3  4  1  0
  4  5  2  0
  5  6  1  0
  6  7  2  0
  6  8  1  0
  8  9  1  0
  9 10  1  0
 10 11  1  0
 11 12  1  0
 12 13  1  0
 11 14  1  0
 14 15  1  0
 15 16  1  0
 16 17  1  0
 17 18  1  0
 18 19  2  0
 18 20  1  0
 20 21  1  0
 21 22  1  0
 22 23  2  0
 22 24  1  0
 24 25  2  0
 25 26  1  0
 26 27  2  0
 27 28  1  0
 28 29  1  0
 29 30  2  0
 30 31  1  0
 31 32  2  0
 32 33  1  0
 33 34  2  0
  5 35  1  0
  7  2  1  0
 13  8  1  0
 30 21  1  0
 28 24  1  0
 34 29  1  0
  1 36  1  0
  1 37  1  0
  1 38  1  0
  3 39  1  0
  4 40  1  0
  7 41  1  0
  9 42  1  0
  9 43  1  0
 10 44  1  0
 10 45  1  0
 12 46  1  0
 12 47  1  0
 13 48  1  0
 13 49  1  0
 14 50  1  0
 14 51  1  0
 15 52  1  0
 15 53  1  0
 16 54  1  0
 16 55  1  0
 17 56  1  0
 20 57  1  0
 20 58  1  0
 25 59  1  0
 26 60  1  0
 27 61  1  0
 32 62  1  0
 33 63  1  0
 34 64  1  0
 35 65  1  0
 35 66  1  0
 35 67  1  0
M  END
>  <Ligand ID>  (1) 
LIG0003707

>  <Ligand>  (1) 
MLS-0360328.0001

>  <SMILES>  (1) 
Cc1ccc(c(c1)N1CCN(CC1)CCCNC(=O)Cn1c(=O)c2cccn2c2c1nccc2)C

>  <CID>  (1) 
22553459.0

>  <ChEMBL ID>  (1) 
nan

>  <InChiKey>  (1) 
ZDUCRMRWIOHJEL-UHFFFAOYSA-N

>  <InChi>  (1) 
InChI=1S/C27H32N6O2/c1-20-8-9-21(2)24(18-20)31-16-14-30(15-17-31)12-5-11-28-25(34)19-33-26-22(6-3-10-29-26)32-13-4-7-23(32)27(33)35/h3-4,6-10,13,18H,5,11-12,14-17,19H2,1-2H3,(H,28,34)

>  <IUPAC Name>  (1) 
N-[3-[4-(2,5-dimethylphenyl)piperazin-1-yl]propyl]-2-(7-oxo-2,8,10-triazatricyclo[7.4.0.02,6]trideca-1(9),3,5,10,12-pentaen-8-yl)acetamide

$$$$
