
     RDKit          3D

 39 40  0  0  0  0  0  0  0  0999 V2000
    1.1885   -1.3978    1.0065 O   0  0  0  0  0  0  0  0  0  0  0  0
    0.0523   -0.8032    0.5187 C   0  0  2  0  0  0  0  0  0  0  0  0
   -0.0043    0.6960    0.7303 C   0  0  1  0  0  0  0  0  0  0  0  0
    0.9391    1.4066   -0.2153 C   0  0  0  0  0  0  0  0  0  0  0  0
    2.2235    1.0756    0.1431 O   0  0  0  0  0  0  0  0  0  0  0  0
    3.4234    1.7669   -0.7903 P   0  0  0  0  0  0  0  0  0  0  0  0
    4.2808    2.7454    0.0136 O   0  0  0  0  0  0  0  0  0  0  0  0
    4.4684    0.5466   -1.3151 O   0  0  0  0  0  0  0  0  0  0  0  0
    5.5048    0.0128   -0.1027 P   0  0  0  0  0  0  0  0  0  0  0  0
    6.5502    1.0370    0.2641 O   0  0  0  0  0  0  0  0  0  0  0  0
    4.6625   -0.3600    1.3273 O   0  0  0  0  0  0  0  0  0  0  0  0
    6.2560   -1.4067   -0.6654 O   0  0  0  0  0  0  0  0  0  0  0  0
    2.8413    2.5754   -2.1533 O   0  0  0  0  0  0  0  0  0  0  0  0
   -1.3327    0.9778    0.4363 O   0  0  0  0  0  0  0  0  0  0  0  0
   -2.1018   -0.0362    0.9674 C   0  0  2  0  0  0  0  0  0  0  0  0
   -1.2137   -1.1931    1.2889 C   0  0  2  0  0  0  0  0  0  0  0  0
   -0.8764   -1.1752    2.6492 O   0  0  0  0  0  0  0  0  0  0  0  0
   -3.2615   -0.3685    0.1770 N   0  0  0  0  0  0  0  0  0  0  0  0
   -3.3042   -1.3769   -0.7087 C   0  0  0  0  0  0  0  0  0  0  0  0
   -4.4295   -1.6789   -1.4582 C   0  0  0  0  0  0  0  0  0  0  0  0
   -5.5755   -0.9231   -1.3069 C   0  0  0  0  0  0  0  0  0  0  0  0
   -6.6348   -1.1333   -1.9487 O   0  0  0  0  0  0  0  0  0  0  0  0
   -5.5115    0.0860   -0.4113 N   0  0  0  0  0  0  0  0  0  0  0  0
   -4.4070    0.3609    0.3057 C   0  0  0  0  0  0  0  0  0  0  0  0
   -4.3720    1.3172    1.1433 O   0  0  0  0  0  0  0  0  0  0  0  0
    1.7736   -1.5964    0.2128 H   0  0  0  0  0  0  0  0  0  0  0  0
   -0.0898   -0.9605   -0.5693 H   0  0  0  0  0  0  0  0  0  0  0  0
    0.3048    0.9303    1.7534 H   0  0  0  0  0  0  0  0  0  0  0  0
    0.6690    1.0700   -1.2404 H   0  0  0  0  0  0  0  0  0  0  0  0
    0.7235    2.4943   -0.1968 H   0  0  0  0  0  0  0  0  0  0  0  0
    5.3318   -0.8137    1.9189 H   0  0  0  0  0  0  0  0  0  0  0  0
    7.0625   -1.5410   -0.1061 H   0  0  0  0  0  0  0  0  0  0  0  0
    3.2001    3.5164   -2.1993 H   0  0  0  0  0  0  0  0  0  0  0  0
   -2.5163    0.3717    1.9349 H   0  0  0  0  0  0  0  0  0  0  0  0
   -1.5849   -2.1808    0.9850 H   0  0  0  0  0  0  0  0  0  0  0  0
   -1.0120   -0.2413    3.0076 H   0  0  0  0  0  0  0  0  0  0  0  0
   -2.4414   -1.9848   -0.8561 H   0  0  0  0  0  0  0  0  0  0  0  0
   -4.4373   -2.5122   -2.1782 H   0  0  0  0  0  0  0  0  0  0  0  0
   -6.3494    0.6965   -0.2510 H   0  0  0  0  0  0  0  0  0  0  0  0
  1  2  1  0
  2  3  1  0
  3  4  1  0
  4  5  1  0
  5  6  1  0
  6  7  2  0
  6  8  1  0
  8  9  1  0
  9 10  2  0
  9 11  1  0
  9 12  1  0
  6 13  1  0
  3 14  1  0
 14 15  1  0
 15 16  1  0
 16 17  1  0
 15 18  1  0
 18 19  1  0
 19 20  2  0
 20 21  1  0
 21 22  2  0
 21 23  1  0
 23 24  1  0
 24 25  2  0
 16  2  1  0
 24 18  1  0
  1 26  1  0
  2 27  1  6
  3 28  1  1
  4 29  1  0
  4 30  1  0
 11 31  1  0
 12 32  1  0
 13 33  1  0
 15 34  1  1
 16 35  1  6
 17 36  1  0
 19 37  1  0
 20 38  1  0
 23 39  1  0
M  END
>  <Ligand ID>  (1) 
LIG0000829

>  <Ligand>  (1) 
UDP

>  <SMILES>  (1) 
O[C@@H]1[C@@H](COP(=O)(OP(=O)(O)O)O)O[C@H]([C@@H]1O)n1ccc(=O)[nH]c1=O

>  <CID>  (1) 
6031.0

>  <ChEMBL ID>  (1) 
nan

>  <InChiKey>  (1) 
XCCTYIAWTASOJW-XVFCMESISA-N

>  <InChi>  (1) 
InChI=1S/C9H14N2O12P2/c12-5-1-2-11(9(15)10-5)8-7(14)6(13)4(22-8)3-21-25(19,20)23-24(16,17)18/h1-2,4,6-8,13-14H,3H2,(H,19,20)(H,10,12,15)(H2,16,17,18)/t4-,6-,7-,8-/m1/s1

>  <IUPAC Name>  (1) 
[(2R,3S,4R,5R)-5-(2,4-dioxopyrimidin-1-yl)-3,4-dihydroxyoxolan-2-yl]methyl phosphono hydrogen phosphate

$$$$
