
     RDKit          3D

 21 21  0  0  0  0  0  0  0  0999 V2000
    3.7775   -0.0675    0.4988 C   0  0  0  0  0  0  0  0  0  0  0  0
    2.5326   -0.6763    0.2796 O   0  0  0  0  0  0  0  0  0  0  0  0
    1.6256   -0.3417   -0.7103 C   0  0  0  0  0  0  0  0  0  0  0  0
    1.9349    0.5963   -1.4948 O   0  0  0  0  0  0  0  0  0  0  0  0
    0.3619   -1.0919   -0.7816 C   0  0  0  0  0  0  0  0  0  0  0  0
   -0.8230   -0.3351   -0.2890 C   0  0  0  0  0  0  0  0  0  0  0  0
   -2.0750   -0.8481   -0.5579 C   0  0  0  0  0  0  0  0  0  0  0  0
   -3.1660   -0.1748   -0.0997 C   0  0  0  0  0  0  0  0  0  0  0  0
   -3.0758    0.9882    0.6130 C   0  0  0  0  0  0  0  0  0  0  0  0
   -1.7916    1.4912    0.8703 C   0  0  0  0  0  0  0  0  0  0  0  0
   -0.6581    0.8319    0.4209 C   0  0  0  0  0  0  0  0  0  0  0  0
    4.2933    0.1664   -0.4625 H   0  0  0  0  0  0  0  0  0  0  0  0
    3.7130    0.8358    1.1526 H   0  0  0  0  0  0  0  0  0  0  0  0
    4.4604   -0.7752    1.0312 H   0  0  0  0  0  0  0  0  0  0  0  0
    0.1340   -1.3639   -1.8546 H   0  0  0  0  0  0  0  0  0  0  0  0
    0.4068   -2.0356   -0.1974 H   0  0  0  0  0  0  0  0  0  0  0  0
   -2.1593   -1.7723   -1.1226 H   0  0  0  0  0  0  0  0  0  0  0  0
   -4.1446   -0.5888   -0.3190 H   0  0  0  0  0  0  0  0  0  0  0  0
   -3.9518    1.4906    0.9655 H   0  0  0  0  0  0  0  0  0  0  0  0
   -1.7145    2.4262    1.4273 H   0  0  0  0  0  0  0  0  0  0  0  0
    0.3197    1.2448    0.6300 H   0  0  0  0  0  0  0  0  0  0  0  0
  1  2  1  0
  2  3  1  0
  3  4  2  0
  3  5  1  0
  5  6  1  0
  6  7  2  0
  7  8  1  0
  8  9  2  0
  9 10  1  0
 10 11  2  0
 11  6  1  0
  1 12  1  0
  1 13  1  0
  1 14  1  0
  5 15  1  0
  5 16  1  0
  7 17  1  0
  8 18  1  0
  9 19  1  0
 10 20  1  0
 11 21  1  0
M  END
>  <Ligand ID>  (1) 
LIG0000758

>  <Ligand>  (1) 
methyl 2-phenylacetate

>  <SMILES>  (1) 
COC(=O)Cc1ccccc1

>  <CID>  (1) 
7559.0

>  <ChEMBL ID>  (1) 
nan

>  <InChiKey>  (1) 
CRZQGDNQQAALAY-UHFFFAOYSA-N

>  <InChi>  (1) 
InChI=1S/C9H10O2/c1-11-9(10)7-8-5-3-2-4-6-8/h2-6H,7H2,1H3

>  <IUPAC Name>  (1) 
methyl 2-phenylacetate

$$$$
