
     RDKit          3D

 93 96  0  0  0  0  0  0  0  0999 V2000
    8.8884    0.2452   -0.1580 C   0  0  0  0  0  0  0  0  0  0  0  0
    7.5693    0.1463    0.5790 C   0  0  0  0  0  0  0  0  0  0  0  0
    7.5646    0.6720    1.7203 O   0  0  0  0  0  0  0  0  0  0  0  0
    6.4888   -0.4977   -0.0375 N   0  0  0  0  0  0  0  0  0  0  0  0
    5.1654   -0.7412    0.4209 C   0  0  2  0  0  0  0  0  0  0  0  0
    4.1684    0.3020    0.1509 C   0  0  0  0  0  0  0  0  0  0  0  0
    4.4727    1.4914   -0.0825 O   0  0  0  0  0  0  0  0  0  0  0  0
    2.7852   -0.1453    0.1647 N   0  0  0  0  0  0  0  0  0  0  0  0
    1.6758    0.7274   -0.0728 C   0  0  2  0  0  0  0  0  0  0  0  0
    0.5080    0.2490    0.6906 C   0  0  0  0  0  0  0  0  0  0  0  0
    0.5721   -0.7472    1.4878 O   0  0  0  0  0  0  0  0  0  0  0  0
   -0.7932    0.8502    0.6063 N   0  0  0  0  0  0  0  0  0  0  0  0
   -1.9337    0.3782    1.3406 C   0  0  2  0  0  0  0  0  0  0  0  0
   -2.7716   -0.5317    0.4520 C   0  0  0  0  0  0  0  0  0  0  0  0
   -2.3593   -0.7156   -0.7236 O   0  0  0  0  0  0  0  0  0  0  0  0
   -3.9623   -1.1367    0.9562 N   0  0  0  0  0  0  0  0  0  0  0  0
   -4.6866   -2.0001    0.0346 C   0  0  0  0  0  0  0  0  0  0  0  0
   -5.8961   -2.5391    0.7486 C   0  0  0  0  0  0  0  0  0  0  0  0
   -7.0991   -1.7054    0.3845 C   0  0  0  0  0  0  0  0  0  0  0  0
   -7.3564   -2.0277   -1.0636 C   0  0  0  0  0  0  0  0  0  0  0  0
   -6.2617   -1.8332   -1.8983 C   0  0  0  0  0  0  0  0  0  0  0  0
   -5.0274   -1.3432   -1.2569 C   0  0  0  0  0  0  0  0  0  0  0  0
   -6.3709   -2.0965   -3.2590 C   0  0  0  0  0  0  0  0  0  0  0  0
   -7.5977   -2.5535   -3.7294 C   0  0  0  0  0  0  0  0  0  0  0  0
   -8.6826   -2.7408   -2.8661 C   0  0  0  0  0  0  0  0  0  0  0  0
   -8.5734   -2.4773   -1.5114 C   0  0  0  0  0  0  0  0  0  0  0  0
   -3.7500   -3.1610   -0.2191 C   0  0  0  0  0  0  0  0  0  0  0  0
   -2.6036   -3.1751    0.3125 O   0  0  0  0  0  0  0  0  0  0  0  0
   -4.1090   -4.2544   -1.0414 N   0  0  0  0  0  0  0  0  0  0  0  0
   -2.7489    1.4605    1.9244 C   0  0  0  0  0  0  0  0  0  0  0  0
   -2.1044    2.3598    2.9062 C   0  0  0  0  0  0  0  0  0  0  0  0
   -0.9293    3.1469    2.4719 C   0  0  0  0  0  0  0  0  0  0  0  0
   -1.1532    4.0605    1.3732 N   0  0  0  0  0  0  0  0  0  0  0  0
   -1.5186    5.2841    1.6098 C   0  0  0  0  0  0  0  0  0  0  0  0
   -1.7497    6.2214    0.5684 N   0  0  0  0  0  0  0  0  0  0  0  0
   -1.7095    5.7686    2.9516 N   0  0  0  0  0  0  0  0  0  0  0  0
    1.3296    0.7478   -1.5806 C   0  0  0  0  0  0  0  0  0  0  0  0
    2.5003    1.2211   -2.3633 C   0  0  0  0  0  0  0  0  0  0  0  0
    3.4268    0.4105   -2.9407 C   0  0  0  0  0  0  0  0  0  0  0  0
    4.4968    0.9527   -3.6211 C   0  0  0  0  0  0  0  0  0  0  0  0
    4.6618    2.3296   -3.7398 C   0  0  0  0  0  0  0  0  0  0  0  0
    3.7091    3.1802   -3.1477 C   0  0  0  0  0  0  0  0  0  0  0  0
    2.6588    2.5982   -2.4781 C   0  0  0  0  0  0  0  0  0  0  0  0
    5.1510   -0.9814    1.9437 C   0  0  0  0  0  0  0  0  0  0  0  0
    5.9020   -2.1676    2.3478 C   0  0  0  0  0  0  0  0  0  0  0  0
    5.2711   -3.4298    2.4644 C   0  0  0  0  0  0  0  0  0  0  0  0
    6.1951   -4.3156    2.8673 N   0  0  0  0  0  0  0  0  0  0  0  0
    7.3589   -3.7094    3.0132 C   0  0  0  0  0  0  0  0  0  0  0  0
    7.1703   -2.3906    2.6926 N   0  0  0  0  0  0  0  0  0  0  0  0
    9.3890    1.1929    0.1083 H   0  0  0  0  0  0  0  0  0  0  0  0
    9.4833   -0.6554    0.0574 H   0  0  0  0  0  0  0  0  0  0  0  0
    8.6262    0.2376   -1.2400 H   0  0  0  0  0  0  0  0  0  0  0  0
    6.6996   -0.8720   -1.0348 H   0  0  0  0  0  0  0  0  0  0  0  0
    4.8672   -1.7666    0.0296 H   0  0  0  0  0  0  0  0  0  0  0  0
    2.5639   -1.1577    0.3495 H   0  0  0  0  0  0  0  0  0  0  0  0
    1.9422    1.7676    0.1537 H   0  0  0  0  0  0  0  0  0  0  0  0
   -0.8765    1.6763   -0.0398 H   0  0  0  0  0  0  0  0  0  0  0  0
   -1.5488   -0.3078    2.1297 H   0  0  0  0  0  0  0  0  0  0  0  0
   -4.2772   -0.9539    1.9385 H   0  0  0  0  0  0  0  0  0  0  0  0
   -6.0456   -3.5836    0.3435 H   0  0  0  0  0  0  0  0  0  0  0  0
   -5.7321   -2.6022    1.8502 H   0  0  0  0  0  0  0  0  0  0  0  0
   -6.8327   -0.6363    0.4643 H   0  0  0  0  0  0  0  0  0  0  0  0
   -7.9948   -1.9443    1.0038 H   0  0  0  0  0  0  0  0  0  0  0  0
   -5.1533   -0.2324   -1.1572 H   0  0  0  0  0  0  0  0  0  0  0  0
   -4.1961   -1.4887   -1.9876 H   0  0  0  0  0  0  0  0  0  0  0  0
   -5.5153   -1.9465   -3.9051 H   0  0  0  0  0  0  0  0  0  0  0  0
   -7.7476   -2.7790   -4.7818 H   0  0  0  0  0  0  0  0  0  0  0  0
   -9.6416   -3.0935   -3.2103 H   0  0  0  0  0  0  0  0  0  0  0  0
   -9.4009   -2.6139   -0.8136 H   0  0  0  0  0  0  0  0  0  0  0  0
   -4.7513   -4.9934   -0.7353 H   0  0  0  0  0  0  0  0  0  0  0  0
   -3.6912   -4.2929   -1.9905 H   0  0  0  0  0  0  0  0  0  0  0  0
   -3.2994    2.0670    1.1613 H   0  0  0  0  0  0  0  0  0  0  0  0
   -3.5975    0.9485    2.4858 H   0  0  0  0  0  0  0  0  0  0  0  0
   -1.8724    1.8486    3.8679 H   0  0  0  0  0  0  0  0  0  0  0  0
   -2.8984    3.1134    3.2043 H   0  0  0  0  0  0  0  0  0  0  0  0
   -0.6373    3.7887    3.3589 H   0  0  0  0  0  0  0  0  0  0  0  0
   -0.0252    2.5692    2.2545 H   0  0  0  0  0  0  0  0  0  0  0  0
   -1.0423    6.9912    0.4142 H   0  0  0  0  0  0  0  0  0  0  0  0
   -2.6006    6.1921   -0.0626 H   0  0  0  0  0  0  0  0  0  0  0  0
   -1.0581    6.4242    3.4156 H   0  0  0  0  0  0  0  0  0  0  0  0
   -2.5393    5.4647    3.5145 H   0  0  0  0  0  0  0  0  0  0  0  0
    1.1112   -0.2882   -1.8925 H   0  0  0  0  0  0  0  0  0  0  0  0
    0.4691    1.4111   -1.7680 H   0  0  0  0  0  0  0  0  0  0  0  0
    3.3155   -0.6843   -2.8666 H   0  0  0  0  0  0  0  0  0  0  0  0
    5.1986    0.2474   -4.0625 H   0  0  0  0  0  0  0  0  0  0  0  0
    5.5090    2.7438   -4.2786 H   0  0  0  0  0  0  0  0  0  0  0  0
    3.8569    4.2425   -3.2497 H   0  0  0  0  0  0  0  0  0  0  0  0
    1.9393    3.2985   -2.0297 H   0  0  0  0  0  0  0  0  0  0  0  0
    4.0645   -1.0691    2.2246 H   0  0  0  0  0  0  0  0  0  0  0  0
    5.5597   -0.0904    2.4665 H   0  0  0  0  0  0  0  0  0  0  0  0
    4.2121   -3.6361    2.2620 H   0  0  0  0  0  0  0  0  0  0  0  0
    8.2681   -4.1976    3.3292 H   0  0  0  0  0  0  0  0  0  0  0  0
    7.9575   -1.7260    2.7417 H   0  0  0  0  0  0  0  0  0  0  0  0
  1  2  1  0
  2  3  2  0
  2  4  1  0
  4  5  1  0
  5  6  1  0
  6  7  2  0
  6  8  1  0
  8  9  1  0
  9 10  1  0
 10 11  2  0
 10 12  1  0
 12 13  1  0
 13 14  1  0
 14 15  2  0
 14 16  1  0
 16 17  1  0
 17 18  1  0
 18 19  1  0
 19 20  1  0
 20 21  2  0
 21 22  1  0
 21 23  1  0
 23 24  2  0
 24 25  1  0
 25 26  2  0
 17 27  1  0
 27 28  2  0
 27 29  1  0
 13 30  1  0
 30 31  1  0
 31 32  1  0
 32 33  1  0
 33 34  2  3
 34 35  1  0
 34 36  1  0
  9 37  1  0
 37 38  1  0
 38 39  2  0
 39 40  1  0
 40 41  2  0
 41 42  1  0
 42 43  2  0
  5 44  1  0
 44 45  1  0
 45 46  2  0
 46 47  1  0
 47 48  2  0
 48 49  1  0
 22 17  1  0
 43 38  1  0
 49 45  1  0
 26 20  1  0
  1 50  1  0
  1 51  1  0
  1 52  1  0
  4 53  1  0
  5 54  1  6
  8 55  1  0
  9 56  1  1
 12 57  1  0
 13 58  1  1
 16 59  1  0
 18 60  1  0
 18 61  1  0
 19 62  1  0
 19 63  1  0
 22 64  1  0
 22 65  1  0
 23 66  1  0
 24 67  1  0
 25 68  1  0
 26 69  1  0
 29 70  1  0
 29 71  1  0
 30 72  1  0
 30 73  1  0
 31 74  1  0
 31 75  1  0
 32 76  1  0
 32 77  1  0
 35 78  1  0
 35 79  1  0
 36 80  1  0
 36 81  1  0
 37 82  1  0
 37 83  1  0
 39 84  1  0
 40 85  1  0
 41 86  1  0
 42 87  1  0
 43 88  1  0
 44 89  1  0
 44 90  1  0
 46 91  1  0
 48 92  1  0
 49 93  1  0
M  END
>  <Ligand ID>  (1) 
LIG0003295

>  <Ligand>  (1) 
Ac-His-D-Phe-Arg-Atc-NH2

>  <SMILES>  (1) 
CC(=O)N[C@H](C(=O)N[C@H](C(=O)N[C@H](C(=O)NC1(CCc2c(C1)cccc2)C(=O)N)CCCN=C(N)N)Cc1ccccc1)Cc1cnc[nH]1

>  <CID>  (1) 
44369139.0

>  <ChEMBL ID>  (1) 
nan

>  <InChiKey>  (1) 
FKKJYDBNNXYKOI-XFMMDKQPSA-N

>  <InChi>  (1) 
InChI=1S/C34H44N10O5/c1-21(45)41-28(17-25-19-38-20-40-25)30(47)43-27(16-22-8-3-2-4-9-22)29(46)42-26(12-7-15-39-33(36)37)31(48)44-34(32(35)49)14-13-23-10-5-6-11-24(23)18-34/h2-6,8-11,19-20,26-28H,7,12-18H2,1H3,(H2,35,49)(H,38,40)(H,41,45)(H,42,46)(H,43,47)(H,44,48)(H4,36,37,39)/t26-,27-,28-,34?/m0/s1

>  <IUPAC Name>  (1) 
2-[[(2S)-2-[[(2S)-2-[[(2S)-2-acetamido-3-(1H-imidazol-5-yl)propanoyl]amino]-3-phenylpropanoyl]amino]-5-(diaminomethylideneamino)pentanoyl]amino]-3,4-dihydro-1H-naphthalene-2-carboxamide

$$$$
