
     RDKit          3D

130133  0  0  0  0  0  0  0  0999 V2000
   -5.8791   -4.4541    0.7572 C   0  0  0  0  0  0  0  0  0  0  0  0
   -5.6966   -2.9769    1.0338 C   0  0  0  0  0  0  0  0  0  0  0  0
   -4.8553   -2.4195   -0.0725 C   0  0  0  0  0  0  0  0  0  0  0  0
   -4.6021   -0.9111    0.0690 C   0  0  0  0  0  0  0  0  0  0  0  0
   -3.7297   -0.4493   -1.0886 C   0  0  2  0  0  0  0  0  0  0  0  0
   -2.4973   -1.2094   -0.9864 N   0  0  0  0  0  0  0  0  0  0  0  0
   -1.5977   -0.9440    0.0678 C   0  0  0  0  0  0  0  0  0  0  0  0
   -1.8830    0.0255    0.8584 O   0  0  0  0  0  0  0  0  0  0  0  0
   -0.3500   -1.6627    0.3662 C   0  0  2  0  0  0  0  0  0  0  0  0
   -0.6120   -3.0070    1.0276 C   0  0  0  0  0  0  0  0  0  0  0  0
    0.6264   -3.7564    1.3258 C   0  0  0  0  0  0  0  0  0  0  0  0
    1.2556   -4.0234    2.5185 C   0  0  0  0  0  0  0  0  0  0  0  0
    2.3499   -4.7717    2.3055 N   0  0  0  0  0  0  0  0  0  0  0  0
    2.4807   -5.0207    0.9880 C   0  0  0  0  0  0  0  0  0  0  0  0
    1.4191   -4.3971    0.3652 C   0  0  0  0  0  0  0  0  0  0  0  0
    1.2764   -4.4712   -0.9921 C   0  0  0  0  0  0  0  0  0  0  0  0
    2.2159   -5.1802   -1.7145 C   0  0  0  0  0  0  0  0  0  0  0  0
    3.2742   -5.8003   -1.0815 C   0  0  0  0  0  0  0  0  0  0  0  0
    3.4394   -5.7378    0.3026 C   0  0  0  0  0  0  0  0  0  0  0  0
    0.3654   -0.8004    1.3391 N   0  0  0  0  0  0  0  0  0  0  0  0
    1.7498   -0.6549    1.1196 C   0  0  0  0  0  0  0  0  0  0  0  0
    2.3849   -1.2166    0.1872 O   0  0  0  0  0  0  0  0  0  0  0  0
    2.5122    0.2296    2.0609 C   0  0  0  0  0  0  0  0  0  0  0  0
    3.9173    0.1613    1.6313 N   0  0  0  0  0  0  0  0  0  0  0  0
    4.5442   -1.0797    1.7104 C   0  0  0  0  0  0  0  0  0  0  0  0
    3.8566   -2.0618    2.1566 O   0  0  0  0  0  0  0  0  0  0  0  0
    5.9381   -1.3979    1.3336 C   0  0  2  0  0  0  0  0  0  0  0  0
    6.6564   -0.3050    0.7275 N   0  0  0  0  0  0  0  0  0  0  0  0
    7.5331    0.5338    1.4908 C   0  0  0  0  0  0  0  0  0  0  0  0
    7.6779    0.3196    2.7380 O   0  0  0  0  0  0  0  0  0  0  0  0
    8.2878    1.6555    0.8789 C   0  0  2  0  0  0  0  0  0  0  0  0
    7.6696    2.9426    1.3997 C   0  0  0  0  0  0  0  0  0  0  0  0
    8.3359    4.1560    0.8791 C   0  0  0  0  0  0  0  0  0  0  0  0
    7.9918    4.7888   -0.2921 C   0  0  0  0  0  0  0  0  0  0  0  0
    8.6610    5.9340   -0.7136 C   0  0  0  0  0  0  0  0  0  0  0  0
    9.7007    6.4888    0.0197 C   0  0  0  0  0  0  0  0  0  0  0  0
   10.0528    5.8433    1.2141 C   0  0  0  0  0  0  0  0  0  0  0  0
    9.3655    4.7025    1.6097 C   0  0  0  0  0  0  0  0  0  0  0  0
   10.3807    7.6139   -0.3651 O   0  0  0  0  0  0  0  0  0  0  0  0
    8.2022    1.6190   -0.5734 N   0  0  0  0  0  0  0  0  0  0  0  0
    6.0968   -2.7180    0.6746 C   0  0  0  0  0  0  0  0  0  0  0  0
    7.5257   -3.0408    0.2885 C   0  0  0  0  0  0  0  0  0  0  0  0
    7.5403   -4.4241   -0.3700 C   0  0  0  0  0  0  0  0  0  0  0  0
    8.9174   -4.8518   -0.7907 C   0  0  0  0  0  0  0  0  0  0  0  0
   -2.2090   -2.2213   -2.0015 C   0  0  0  0  0  0  0  0  0  0  0  0
   -3.6039    0.9906   -1.1840 C   0  0  0  0  0  0  0  0  0  0  0  0
   -2.5504    1.6598   -1.0246 O   0  0  0  0  0  0  0  0  0  0  0  0
   -4.8129    1.7373   -1.4929 N   0  0  0  0  0  0  0  0  0  0  0  0
   -4.6699    3.1955   -1.5703 C   0  0  2  0  0  0  0  0  0  0  0  0
   -5.6592    3.7766   -0.6288 C   0  0  0  0  0  0  0  0  0  0  0  0
   -5.5522    5.0319   -0.3878 O   0  0  0  0  0  0  0  0  0  0  0  0
   -6.6949    3.0627    0.0105 N   0  0  0  0  0  0  0  0  0  0  0  0
   -7.6417    3.6340    0.9376 C   0  0  2  0  0  0  0  0  0  0  0  0
   -7.9490    2.7389    2.0519 C   0  0  0  0  0  0  0  0  0  0  0  0
   -7.3493    1.6035    2.0527 O   0  0  0  0  0  0  0  0  0  0  0  0
   -8.8390    3.0120    3.1164 N   0  0  0  0  0  0  0  0  0  0  0  0
   -8.8627    4.2311    0.2621 C   0  0  0  0  0  0  0  0  0  0  0  0
   -9.6084    3.2437   -0.5326 C   0  0  0  0  0  0  0  0  0  0  0  0
   -9.2699    3.1095   -1.8610 C   0  0  0  0  0  0  0  0  0  0  0  0
   -9.9144    2.2175   -2.7186 C   0  0  0  0  0  0  0  0  0  0  0  0
  -10.9267    1.4559   -2.1807 C   0  0  0  0  0  0  0  0  0  0  0  0
  -11.2665    1.5964   -0.8316 C   0  0  0  0  0  0  0  0  0  0  0  0
  -10.6242    2.4779    0.0051 C   0  0  0  0  0  0  0  0  0  0  0  0
   -5.1188    3.7007   -2.9300 C   0  0  0  0  0  0  0  0  0  0  0  0
   -4.3896    3.1717   -4.0683 C   0  0  0  0  0  0  0  0  0  0  0  0
   -3.4624    2.3062   -3.8746 O   0  0  0  0  0  0  0  0  0  0  0  0
   -4.6206    3.5378   -5.3764 O   0  0  0  0  0  0  0  0  0  0  0  0
   -6.9333   -4.6755    0.9327 H   0  0  0  0  0  0  0  0  0  0  0  0
   -5.6989   -4.6983   -0.3283 H   0  0  0  0  0  0  0  0  0  0  0  0
   -5.1703   -5.0735    1.3114 H   0  0  0  0  0  0  0  0  0  0  0  0
   -5.1483   -2.8618    1.9927 H   0  0  0  0  0  0  0  0  0  0  0  0
   -6.6448   -2.4259    1.1617 H   0  0  0  0  0  0  0  0  0  0  0  0
   -3.8816   -2.9031   -0.1791 H   0  0  0  0  0  0  0  0  0  0  0  0
   -5.3882   -2.6259   -1.0401 H   0  0  0  0  0  0  0  0  0  0  0  0
   -4.0554   -0.7741    1.0208 H   0  0  0  0  0  0  0  0  0  0  0  0
   -5.5712   -0.4402    0.1415 H   0  0  0  0  0  0  0  0  0  0  0  0
   -4.2612   -0.8199   -1.9931 H   0  0  0  0  0  0  0  0  0  0  0  0
    0.2850   -1.8758   -0.4945 H   0  0  0  0  0  0  0  0  0  0  0  0
   -1.0263   -2.7181    2.0503 H   0  0  0  0  0  0  0  0  0  0  0  0
   -1.3884   -3.6100    0.5857 H   0  0  0  0  0  0  0  0  0  0  0  0
    0.9194   -3.6810    3.4876 H   0  0  0  0  0  0  0  0  0  0  0  0
    2.9983   -5.1036    3.0809 H   0  0  0  0  0  0  0  0  0  0  0  0
    0.4736   -4.0133   -1.5581 H   0  0  0  0  0  0  0  0  0  0  0  0
    2.1235   -5.2482   -2.7895 H   0  0  0  0  0  0  0  0  0  0  0  0
    4.0360   -6.3673   -1.6077 H   0  0  0  0  0  0  0  0  0  0  0  0
    4.2805   -6.2274    0.7995 H   0  0  0  0  0  0  0  0  0  0  0  0
   -0.1673   -0.3475    2.1209 H   0  0  0  0  0  0  0  0  0  0  0  0
    2.1315    1.2729    1.9994 H   0  0  0  0  0  0  0  0  0  0  0  0
    2.3891   -0.1051    3.0991 H   0  0  0  0  0  0  0  0  0  0  0  0
    4.4457    0.9742    1.2809 H   0  0  0  0  0  0  0  0  0  0  0  0
    6.4460   -1.5033    2.3544 H   0  0  0  0  0  0  0  0  0  0  0  0
    6.5762   -0.0619   -0.3057 H   0  0  0  0  0  0  0  0  0  0  0  0
    9.3404    1.6431    1.1969 H   0  0  0  0  0  0  0  0  0  0  0  0
    7.7434    2.9096    2.5060 H   0  0  0  0  0  0  0  0  0  0  0  0
    6.5728    2.9118    1.1799 H   0  0  0  0  0  0  0  0  0  0  0  0
    7.1821    4.3728   -0.8824 H   0  0  0  0  0  0  0  0  0  0  0  0
    8.3658    6.4218   -1.6509 H   0  0  0  0  0  0  0  0  0  0  0  0
   10.8666    6.2339    1.8404 H   0  0  0  0  0  0  0  0  0  0  0  0
    9.6669    4.2447    2.5279 H   0  0  0  0  0  0  0  0  0  0  0  0
   11.2328    7.5464   -0.9186 H   0  0  0  0  0  0  0  0  0  0  0  0
    7.2564    1.7715   -0.9340 H   0  0  0  0  0  0  0  0  0  0  0  0
    8.6908    0.7631   -0.9093 H   0  0  0  0  0  0  0  0  0  0  0  0
    5.7959   -3.5618    1.3615 H   0  0  0  0  0  0  0  0  0  0  0  0
    5.4928   -2.8748   -0.2371 H   0  0  0  0  0  0  0  0  0  0  0  0
    7.9262   -2.3402   -0.4797 H   0  0  0  0  0  0  0  0  0  0  0  0
    8.2076   -3.0711    1.1367 H   0  0  0  0  0  0  0  0  0  0  0  0
    6.8698   -4.4793   -1.2468 H   0  0  0  0  0  0  0  0  0  0  0  0
    7.1531   -5.2015    0.3373 H   0  0  0  0  0  0  0  0  0  0  0  0
    9.3288   -4.2743   -1.6293 H   0  0  0  0  0  0  0  0  0  0  0  0
    9.5951   -4.8961    0.0914 H   0  0  0  0  0  0  0  0  0  0  0  0
    8.8189   -5.9073   -1.1329 H   0  0  0  0  0  0  0  0  0  0  0  0
   -3.1186   -2.3312   -2.6544 H   0  0  0  0  0  0  0  0  0  0  0  0
   -1.4195   -1.8725   -2.7001 H   0  0  0  0  0  0  0  0  0  0  0  0
   -1.9509   -3.1978   -1.6013 H   0  0  0  0  0  0  0  0  0  0  0  0
   -5.7160    1.2477   -1.6541 H   0  0  0  0  0  0  0  0  0  0  0  0
   -3.6375    3.5246   -1.3615 H   0  0  0  0  0  0  0  0  0  0  0  0
   -6.7988    2.0440   -0.1932 H   0  0  0  0  0  0  0  0  0  0  0  0
   -7.1325    4.5583    1.3733 H   0  0  0  0  0  0  0  0  0  0  0  0
   -9.7869    3.4465    2.9762 H   0  0  0  0  0  0  0  0  0  0  0  0
   -8.5372    2.7677    4.1009 H   0  0  0  0  0  0  0  0  0  0  0  0
   -8.5835    5.1222   -0.3549 H   0  0  0  0  0  0  0  0  0  0  0  0
   -9.5645    4.6477    1.0268 H   0  0  0  0  0  0  0  0  0  0  0  0
   -8.4792    3.6977   -2.2861 H   0  0  0  0  0  0  0  0  0  0  0  0
   -9.6546    2.1095   -3.7583 H   0  0  0  0  0  0  0  0  0  0  0  0
  -11.4433    0.7560   -2.8242 H   0  0  0  0  0  0  0  0  0  0  0  0
  -12.0879    0.9435   -0.5002 H   0  0  0  0  0  0  0  0  0  0  0  0
  -10.9151    2.5545    1.0412 H   0  0  0  0  0  0  0  0  0  0  0  0
   -5.0685    4.8127   -2.8777 H   0  0  0  0  0  0  0  0  0  0  0  0
   -6.2123    3.4840   -3.0247 H   0  0  0  0  0  0  0  0  0  0  0  0
   -4.6722    2.8459   -6.1278 H   0  0  0  0  0  0  0  0  0  0  0  0
  1  2  1  0
  2  3  1  0
  3  4  1  0
  4  5  1  0
  5  6  1  0
  6  7  1  0
  7  8  2  0
  7  9  1  0
  9 10  1  0
 10 11  1  0
 11 12  2  0
 12 13  1  0
 13 14  1  0
 14 15  2  0
 15 16  1  0
 16 17  2  0
 17 18  1  0
 18 19  2  0
  9 20  1  0
 20 21  1  0
 21 22  2  0
 21 23  1  0
 23 24  1  0
 24 25  1  0
 25 26  2  0
 25 27  1  0
 27 28  1  0
 28 29  1  0
 29 30  2  0
 29 31  1  0
 31 32  1  0
 32 33  1  0
 33 34  2  0
 34 35  1  0
 35 36  2  0
 36 37  1  0
 37 38  2  0
 36 39  1  0
 31 40  1  0
 27 41  1  0
 41 42  1  0
 42 43  1  0
 43 44  1  0
  6 45  1  0
  5 46  1  0
 46 47  2  0
 46 48  1  0
 48 49  1  0
 49 50  1  0
 50 51  2  0
 50 52  1  0
 52 53  1  0
 53 54  1  0
 54 55  2  0
 54 56  1  0
 53 57  1  0
 57 58  1  0
 58 59  2  0
 59 60  1  0
 60 61  2  0
 61 62  1  0
 62 63  2  0
 49 64  1  0
 64 65  1  0
 65 66  2  0
 65 67  1  0
 15 11  1  0
 38 33  1  0
 63 58  1  0
 19 14  1  0
  1 68  1  0
  1 69  1  0
  1 70  1  0
  2 71  1  0
  2 72  1  0
  3 73  1  0
  3 74  1  0
  4 75  1  0
  4 76  1  0
  5 77  1  6
  9 78  1  6
 10 79  1  0
 10 80  1  0
 12 81  1  0
 13 82  1  0
 16 83  1  0
 17 84  1  0
 18 85  1  0
 19 86  1  0
 20 87  1  0
 23 88  1  0
 23 89  1  0
 24 90  1  0
 27 91  1  1
 28 92  1  0
 31 93  1  6
 32 94  1  0
 32 95  1  0
 34 96  1  0
 35 97  1  0
 37 98  1  0
 38 99  1  0
 39100  1  0
 40101  1  0
 40102  1  0
 41103  1  0
 41104  1  0
 42105  1  0
 42106  1  0
 43107  1  0
 43108  1  0
 44109  1  0
 44110  1  0
 44111  1  0
 45112  1  0
 45113  1  0
 45114  1  0
 48115  1  0
 49116  1  1
 52117  1  0
 53118  1  1
 56119  1  0
 56120  1  0
 57121  1  0
 57122  1  0
 59123  1  0
 60124  1  0
 61125  1  0
 62126  1  0
 63127  1  0
 64128  1  0
 64129  1  0
 67130  1  0
M  END
>  <Ligand ID>  (1) 
LIG0004169

>  <Ligand>  (1) 
Tyr-D-Nle-Gly-Trp-NMeNle-Asp-Phe-NH2

>  <SMILES>  (1) 
CCCC[C@H](N(C(=O)[C@H](Cc1c[nH]c2c1cccc2)NC(=O)CNC(=O)[C@H](NC(=O)[C@H](Cc1ccc(cc1)O)N)CCCC)C)C(=O)N[C@H](C(=O)N[C@H](C(=O)N)Cc1ccccc1)CC(=O)O

>  <CID>  (1) 
11528076.0

>  <ChEMBL ID>  (1) 
nan

>  <InChiKey>  (1) 
KJQHRGYUFQCLJG-ACEPAJJMSA-N

>  <InChi>  (1) 
InChI=1S/C48H63N9O10/c1-4-6-16-36(54-44(63)34(49)23-30-19-21-32(58)22-20-30)45(64)52-28-41(59)53-39(25-31-27-51-35-17-12-11-15-33(31)35)48(67)57(3)40(18-7-5-2)47(66)56-38(26-42(60)61)46(65)55-37(43(50)62)24-29-13-9-8-10-14-29/h8-15,17,19-22,27,34,36-40,51,58H,4-7,16,18,23-26,28,49H2,1-3H3,(H2,50,62)(H,52,64)(H,53,59)(H,54,63)(H,55,65)(H,56,66)(H,60,61)/t34-,36+,37-,38-,39-,40-/m0/s1

>  <IUPAC Name>  (1) 
(3S)-3-[[(2S)-2-[[(2S)-2-[[2-[[(2R)-2-[[(2S)-2-amino-3-(4-hydroxyphenyl)propanoyl]amino]hexanoyl]amino]acetyl]amino]-3-(1H-indol-3-yl)propanoyl]-methylamino]hexanoyl]amino]-4-[[(2S)-1-amino-1-oxo-3-phenylpropan-2-yl]amino]-4-oxobutanoic acid

$$$$
