
     RDKit          3D

 43 45  0  0  0  0  0  0  0  0999 V2000
   -8.2105    0.0523    0.2813 O   0  0  0  0  0  0  0  0  0  0  0  0
   -6.9946    0.4201   -0.3158 C   0  0  0  0  0  0  0  0  0  0  0  0
   -6.6404    1.5927   -0.1601 O   0  0  0  0  0  0  0  0  0  0  0  0
   -6.2884   -0.6345   -1.0550 C   0  0  0  0  0  0  0  0  0  0  0  0
   -4.9840   -0.2386   -1.6727 C   0  0  0  0  0  0  0  0  0  0  0  0
   -3.9634    0.2230   -0.7162 C   0  0  0  0  0  0  0  0  0  0  0  0
   -3.2118   -0.7435   -0.0707 C   0  0  0  0  0  0  0  0  0  0  0  0
   -2.2210   -0.3847    0.8209 C   0  0  0  0  0  0  0  0  0  0  0  0
   -1.9141    0.9147    1.1259 C   0  0  0  0  0  0  0  0  0  0  0  0
   -2.6850    1.8861    0.4631 C   0  0  0  0  0  0  0  0  0  0  0  0
   -3.6760    1.5324   -0.4287 C   0  0  0  0  0  0  0  0  0  0  0  0
   -0.9650    1.3657    1.9804 O   0  0  0  0  0  0  0  0  0  0  0  0
   -0.0591    0.6878    2.7508 C   0  0  0  0  0  0  0  0  0  0  0  0
    0.9344   -0.1464    2.0396 C   0  0  0  0  0  0  0  0  0  0  0  0
    0.9387   -1.4061    1.7010 O   0  0  0  0  0  0  0  0  0  0  0  0
    2.0239   -1.7479    1.0759 N   0  0  0  0  0  0  0  0  0  0  0  0
    2.8137   -0.6645    0.9768 C   0  0  0  0  0  0  0  0  0  0  0  0
    2.1326    0.3261    1.5765 N   0  0  0  0  0  0  0  0  0  0  0  0
    4.1338   -0.5683    0.3532 C   0  0  0  0  0  0  0  0  0  0  0  0
    4.6110    0.6919   -0.0015 C   0  0  0  0  0  0  0  0  0  0  0  0
    5.8497    0.8500   -0.5938 C   0  0  0  0  0  0  0  0  0  0  0  0
    6.6182   -0.2952   -0.8301 C   0  0  0  0  0  0  0  0  0  0  0  0
    6.1322   -1.5303   -0.4740 C   0  0  0  0  0  0  0  0  0  0  0  0
    4.8897   -1.7008    0.1214 C   0  0  0  0  0  0  0  0  0  0  0  0
    7.9405   -0.0827   -1.4671 C   0  0  0  0  0  0  0  0  0  0  0  0
   -8.8851    0.7989    0.5008 H   0  0  0  0  0  0  0  0  0  0  0  0
   -6.0600   -1.4345   -0.2910 H   0  0  0  0  0  0  0  0  0  0  0  0
   -6.9552   -1.1521   -1.7829 H   0  0  0  0  0  0  0  0  0  0  0  0
   -5.1224    0.5040   -2.5058 H   0  0  0  0  0  0  0  0  0  0  0  0
   -4.6102   -1.1584   -2.2212 H   0  0  0  0  0  0  0  0  0  0  0  0
   -3.4029   -1.7919   -0.2669 H   0  0  0  0  0  0  0  0  0  0  0  0
   -1.6835   -1.1862    1.2934 H   0  0  0  0  0  0  0  0  0  0  0  0
   -2.4938    2.9465    0.6597 H   0  0  0  0  0  0  0  0  0  0  0  0
   -4.2070    2.3389   -0.9048 H   0  0  0  0  0  0  0  0  0  0  0  0
    0.5401    1.4680    3.3179 H   0  0  0  0  0  0  0  0  0  0  0  0
   -0.5253    0.0994    3.5887 H   0  0  0  0  0  0  0  0  0  0  0  0
    3.9815    1.5543    0.2000 H   0  0  0  0  0  0  0  0  0  0  0  0
    6.1776    1.8329   -0.8500 H   0  0  0  0  0  0  0  0  0  0  0  0
    6.7533   -2.4040   -0.6704 H   0  0  0  0  0  0  0  0  0  0  0  0
    4.5391   -2.6933    0.3891 H   0  0  0  0  0  0  0  0  0  0  0  0
    8.4650   -1.0582   -1.5726 H   0  0  0  0  0  0  0  0  0  0  0  0
    8.5758    0.6453   -0.9455 H   0  0  0  0  0  0  0  0  0  0  0  0
    7.7078    0.2909   -2.5055 H   0  0  0  0  0  0  0  0  0  0  0  0
  1  2  1  0
  2  3  2  0
  2  4  1  0
  4  5  1  0
  5  6  1  0
  6  7  2  0
  7  8  1  0
  8  9  2  0
  9 10  1  0
 10 11  2  0
  9 12  1  0
 12 13  1  0
 13 14  1  0
 14 15  1  0
 15 16  1  0
 16 17  2  0
 17 18  1  0
 17 19  1  0
 19 20  2  0
 20 21  1  0
 21 22  2  0
 22 23  1  0
 23 24  2  0
 22 25  1  0
 11  6  1  0
 18 14  2  0
 24 19  1  0
  1 26  1  0
  4 27  1  0
  4 28  1  0
  5 29  1  0
  5 30  1  0
  7 31  1  0
  8 32  1  0
 10 33  1  0
 11 34  1  0
 13 35  1  0
 13 36  1  0
 20 37  1  0
 21 38  1  0
 23 39  1  0
 24 40  1  0
 25 41  1  0
 25 42  1  0
 25 43  1  0
M  END
>  <Ligand ID>  (1) 
LIG0001724

>  <Ligand>  (1) 
CHEMBL3601001

>  <SMILES>  (1) 
OC(=O)CCc1ccc(cc1)OCc1onc(n1)c1ccc(cc1)C

>  <CID>  (1) 
86803193.0

>  <ChEMBL ID>  (1) 
nan

>  <InChiKey>  (1) 
TXJLEBKEZJIHEF-UHFFFAOYSA-N

>  <InChi>  (1) 
InChI=1S/C19H18N2O4/c1-13-2-7-15(8-3-13)19-20-17(25-21-19)12-24-16-9-4-14(5-10-16)6-11-18(22)23/h2-5,7-10H,6,11-12H2,1H3,(H,22,23)

>  <IUPAC Name>  (1) 
3-[4-[[3-(4-methylphenyl)-1,2,4-oxadiazol-5-yl]methoxy]phenyl]propanoic acid

$$$$
