
     RDKit          3D

 60 63  0  0  0  0  0  0  0  0999 V2000
   -6.2522    0.6075    2.4276 O   0  0  0  0  0  0  0  0  0  0  0  0
   -5.8536    0.6469    1.0890 C   0  0  2  0  0  0  0  0  0  0  0  0
   -6.4844   -0.4067    0.2929 C   0  0  0  0  0  0  0  0  0  0  0  0
   -6.5893   -1.7143    0.7351 C   0  0  0  0  0  0  0  0  0  0  0  0
   -7.1840   -2.7114   -0.0160 C   0  0  0  0  0  0  0  0  0  0  0  0
   -7.7070   -2.4353   -1.2623 C   0  0  0  0  0  0  0  0  0  0  0  0
   -7.6159   -1.1398   -1.7277 C   0  0  0  0  0  0  0  0  0  0  0  0
   -7.0197   -0.1543   -0.9673 C   0  0  0  0  0  0  0  0  0  0  0  0
   -4.3816    0.7428    1.0238 C   0  0  1  0  0  0  0  0  0  0  0  0
   -3.6008   -0.3664    1.6290 C   0  0  0  0  0  0  0  0  0  0  0  0
   -2.2193   -0.1440    0.9952 C   0  0  0  0  0  0  0  0  0  0  0  0
   -2.4227    0.9725    0.0150 C   0  0  2  0  0  0  0  0  0  0  0  0
   -3.8240    0.7932   -0.3241 N   0  0  0  0  0  0  0  0  0  0  0  0
   -1.5387    0.9040   -1.2015 C   0  0  0  0  0  0  0  0  0  0  0  0
   -0.1094    0.9447   -0.8851 C   0  0  0  0  0  0  0  0  0  0  0  0
    0.6759   -0.1655   -0.6413 C   0  0  0  0  0  0  0  0  0  0  0  0
    2.0081   -0.0957   -0.3481 C   0  0  0  0  0  0  0  0  0  0  0  0
    2.6089    1.1404   -0.2903 C   0  0  0  0  0  0  0  0  0  0  0  0
    1.8846    2.2836   -0.5225 C   0  0  0  0  0  0  0  0  0  0  0  0
    0.5363    2.1728   -0.8167 C   0  0  0  0  0  0  0  0  0  0  0  0
    4.0077    1.1525    0.0212 N   0  0  0  0  0  0  0  0  0  0  0  0
    4.9179    1.0824   -1.0644 C   0  0  0  0  0  0  0  0  0  0  0  0
    4.5350    1.0114   -2.2690 O   0  0  0  0  0  0  0  0  0  0  0  0
    6.3828    1.0951   -0.7377 C   0  0  1  0  0  0  0  0  0  0  0  0
    6.7067   -0.0682    0.0842 N   0  0  0  0  0  0  0  0  0  0  0  0
    5.8210   -1.0291    0.2209 N   0  0  0  0  0  0  0  0  0  0  0  0
    6.1144   -2.1021    0.9764 C   0  0  0  0  0  0  0  0  0  0  0  0
    7.3197   -2.2459    1.6258 C   0  0  0  0  0  0  0  0  0  0  0  0
    8.2442   -1.2261    1.4735 C   0  0  0  0  0  0  0  0  0  0  0  0
    7.8947   -0.1452    0.6870 C   0  0  0  0  0  0  0  0  0  0  0  0
    8.7650    0.7714    0.5686 O   0  0  0  0  0  0  0  0  0  0  0  0
    7.2099    1.0145   -1.9848 C   0  0  0  0  0  0  0  0  0  0  0  0
   -5.5021    0.5331    3.0592 H   0  0  0  0  0  0  0  0  0  0  0  0
   -6.2633    1.6171    0.7027 H   0  0  0  0  0  0  0  0  0  0  0  0
   -6.2050   -2.0100    1.7000 H   0  0  0  0  0  0  0  0  0  0  0  0
   -7.2594   -3.7428    0.3485 H   0  0  0  0  0  0  0  0  0  0  0  0
   -8.1819   -3.1662   -1.8955 H   0  0  0  0  0  0  0  0  0  0  0  0
   -8.0240   -0.9129   -2.7064 H   0  0  0  0  0  0  0  0  0  0  0  0
   -6.9847    0.8453   -1.4011 H   0  0  0  0  0  0  0  0  0  0  0  0
   -4.0790    1.6961    1.4965 H   0  0  0  0  0  0  0  0  0  0  0  0
   -3.9205   -1.3737    1.3632 H   0  0  0  0  0  0  0  0  0  0  0  0
   -3.5260   -0.3097    2.7414 H   0  0  0  0  0  0  0  0  0  0  0  0
   -1.8517   -1.0615    0.5258 H   0  0  0  0  0  0  0  0  0  0  0  0
   -1.5169    0.1561    1.8156 H   0  0  0  0  0  0  0  0  0  0  0  0
   -2.3688    1.9657    0.5217 H   0  0  0  0  0  0  0  0  0  0  0  0
   -3.9089   -0.1821   -0.6974 H   0  0  0  0  0  0  0  0  0  0  0  0
   -1.8101    1.7728   -1.8334 H   0  0  0  0  0  0  0  0  0  0  0  0
   -1.8308    0.0083   -1.7899 H   0  0  0  0  0  0  0  0  0  0  0  0
    0.2177   -1.1432   -0.6834 H   0  0  0  0  0  0  0  0  0  0  0  0
    2.5665   -1.0139   -0.1667 H   0  0  0  0  0  0  0  0  0  0  0  0
    2.4103    3.2216   -0.4631 H   0  0  0  0  0  0  0  0  0  0  0  0
   -0.0433    3.0673   -1.0014 H   0  0  0  0  0  0  0  0  0  0  0  0
    4.3331    1.2110    1.0139 H   0  0  0  0  0  0  0  0  0  0  0  0
    6.6077    2.0165   -0.1955 H   0  0  0  0  0  0  0  0  0  0  0  0
    5.3784   -2.8962    1.0875 H   0  0  0  0  0  0  0  0  0  0  0  0
    7.5135   -3.1223    2.2214 H   0  0  0  0  0  0  0  0  0  0  0  0
    9.2052   -1.2910    1.9627 H   0  0  0  0  0  0  0  0  0  0  0  0
    7.4574    2.0257   -2.3383 H   0  0  0  0  0  0  0  0  0  0  0  0
    6.6056    0.4438   -2.7452 H   0  0  0  0  0  0  0  0  0  0  0  0
    8.1508    0.4597   -1.7915 H   0  0  0  0  0  0  0  0  0  0  0  0
  1  2  1  0
  2  3  1  0
  3  4  2  0
  4  5  1  0
  5  6  2  0
  6  7  1  0
  7  8  2  0
  2  9  1  0
  9 10  1  0
 10 11  1  0
 11 12  1  0
 12 13  1  0
 12 14  1  0
 14 15  1  0
 15 16  2  0
 16 17  1  0
 17 18  2  0
 18 19  1  0
 19 20  2  0
 18 21  1  0
 21 22  1  0
 22 23  2  0
 22 24  1  0
 24 25  1  0
 25 26  1  0
 26 27  2  0
 27 28  1  0
 28 29  2  0
 29 30  1  0
 30 31  2  0
 24 32  1  0
  8  3  1  0
 13  9  1  0
 20 15  1  0
 30 25  1  0
  1 33  1  0
  2 34  1  6
  4 35  1  0
  5 36  1  0
  6 37  1  0
  7 38  1  0
  8 39  1  0
  9 40  1  1
 10 41  1  0
 10 42  1  0
 11 43  1  0
 11 44  1  0
 12 45  1  1
 13 46  1  0
 14 47  1  0
 14 48  1  0
 16 49  1  0
 17 50  1  0
 19 51  1  0
 20 52  1  0
 21 53  1  0
 24 54  1  1
 27 55  1  0
 28 56  1  0
 29 57  1  0
 32 58  1  0
 32 59  1  0
 32 60  1  0
M  END
>  <Ligand ID>  (1) 
LIG0001093

>  <Ligand>  (1) 
CHEMBL3765335

>  <SMILES>  (1) 
O[C@H](c1ccccc1)[C@H]1CC[C@H](N1)Cc1ccc(cc1)NC(=O)[C@@H](n1ncccc1=O)C

>  <CID>  (1) 
127037832.0

>  <ChEMBL ID>  (1) 
nan

>  <InChiKey>  (1) 
PBXGYXYBIGMVQD-KBABAZTHSA-N

>  <InChi>  (1) 
InChI=1S/C25H28N4O3/c1-17(29-23(30)8-5-15-26-29)25(32)28-20-11-9-18(10-12-20)16-21-13-14-22(27-21)24(31)19-6-3-2-4-7-19/h2-12,15,17,21-22,24,27,31H,13-14,16H2,1H3,(H,28,32)/t17-,21-,22+,24+/m0/s1

>  <IUPAC Name>  (1) 
(2S)-N-[4-[[(2S,5R)-5-[(R)-hydroxy(phenyl)methyl]pyrrolidin-2-yl]methyl]phenyl]-2-(6-oxopyridazin-1-yl)propanamide

$$$$
