
     RDKit          3D

 57 61  0  0  0  0  0  0  0  0999 V2000
    3.3759    0.2161   -1.3672 O   0  0  0  0  0  0  0  0  0  0  0  0
    2.7747   -0.0234   -0.2782 C   0  0  0  0  0  0  0  0  0  0  0  0
    1.3168   -0.1580   -0.3672 C   0  0  0  0  0  0  0  0  0  0  0  0
    0.8060   -1.4223   -0.3762 C   0  0  0  0  0  0  0  0  0  0  0  0
   -0.5820   -1.5317   -0.4631 C   0  0  0  0  0  0  0  0  0  0  0  0
   -1.3838   -0.4091   -0.5355 C   0  0  0  0  0  0  0  0  0  0  0  0
   -0.8519    0.8544   -0.5249 N   0  0  0  0  0  0  0  0  0  0  0  0
    0.4915    0.9805   -0.4407 C   0  0  0  0  0  0  0  0  0  0  0  0
    1.1258    2.0946   -0.4195 N   0  0  0  0  0  0  0  0  0  0  0  0
   -1.6472    2.0174   -0.5974 C   0  0  0  0  0  0  0  0  0  0  0  0
   -3.1010    1.8844   -0.2231 C   0  0  0  0  0  0  0  0  0  0  0  0
   -3.5228    3.3707   -0.3508 C   0  0  0  0  0  0  0  0  0  0  0  0
   -2.7847    3.8167   -1.5956 C   0  0  0  0  0  0  0  0  0  0  0  0
   -1.7580    2.7146   -1.9110 C   0  0  0  0  0  0  0  0  0  0  0  0
   -2.7031   -0.6095   -0.6164 N   0  0  0  0  0  0  0  0  0  0  0  0
   -3.1972   -1.8533   -0.6244 C   0  0  0  0  0  0  0  0  0  0  0  0
   -2.4110   -2.9568   -0.5529 N   0  0  0  0  0  0  0  0  0  0  0  0
   -1.0776   -2.8189   -0.4701 C   0  0  0  0  0  0  0  0  0  0  0  0
   -0.3262   -3.8097   -0.4031 O   0  0  0  0  0  0  0  0  0  0  0  0
   -2.8989   -4.2061   -0.5615 C   0  0  0  0  0  0  0  0  0  0  0  0
   -4.2345   -4.4777   -0.6435 C   0  0  0  0  0  0  0  0  0  0  0  0
   -5.0877   -3.3737   -0.7198 C   0  0  0  0  0  0  0  0  0  0  0  0
   -4.5784   -2.0827   -0.7104 C   0  0  0  0  0  0  0  0  0  0  0  0
   -5.5066   -0.9219   -0.8002 C   0  0  0  0  0  0  0  0  0  0  0  0
    3.4768   -0.1535    0.9591 N   0  0  0  0  0  0  0  0  0  0  0  0
    4.9154    0.0033    0.9059 C   0  0  0  0  0  0  0  0  0  0  0  0
    5.2969    1.2028    1.7448 C   0  0  0  0  0  0  0  0  0  0  0  0
    6.6339    0.8667    2.3744 C   0  0  0  0  0  0  0  0  0  0  0  0
    6.9141   -0.5812    2.1236 C   0  0  0  0  0  0  0  0  0  0  0  0
    5.6642   -1.1683    1.5030 C   0  0  0  0  0  0  0  0  0  0  0  0
    1.4480   -2.2728   -0.3188 H   0  0  0  0  0  0  0  0  0  0  0  0
    0.6347    2.9913   -0.4664 H   0  0  0  0  0  0  0  0  0  0  0  0
   -1.2338    2.7539    0.1484 H   0  0  0  0  0  0  0  0  0  0  0  0
   -3.2959    1.6068    0.8055 H   0  0  0  0  0  0  0  0  0  0  0  0
   -3.7263    1.4088   -1.0016 H   0  0  0  0  0  0  0  0  0  0  0  0
   -3.2755    3.9418    0.5473 H   0  0  0  0  0  0  0  0  0  0  0  0
   -4.6028    3.4505   -0.5928 H   0  0  0  0  0  0  0  0  0  0  0  0
   -2.2822    4.7705   -1.2981 H   0  0  0  0  0  0  0  0  0  0  0  0
   -3.4378    4.0253   -2.4463 H   0  0  0  0  0  0  0  0  0  0  0  0
   -2.1814    2.0476   -2.6911 H   0  0  0  0  0  0  0  0  0  0  0  0
   -0.8653    3.2564   -2.2596 H   0  0  0  0  0  0  0  0  0  0  0  0
   -2.2220   -5.0475   -0.5034 H   0  0  0  0  0  0  0  0  0  0  0  0
   -4.6750   -5.4629   -0.6536 H   0  0  0  0  0  0  0  0  0  0  0  0
   -6.1596   -3.5240   -0.7863 H   0  0  0  0  0  0  0  0  0  0  0  0
   -5.5877   -0.3353    0.1180 H   0  0  0  0  0  0  0  0  0  0  0  0
   -6.5238   -1.3327   -1.0552 H   0  0  0  0  0  0  0  0  0  0  0  0
   -5.2635   -0.2821   -1.6817 H   0  0  0  0  0  0  0  0  0  0  0  0
    2.9615   -0.3508    1.8367 H   0  0  0  0  0  0  0  0  0  0  0  0
    5.2324    0.1907   -0.1291 H   0  0  0  0  0  0  0  0  0  0  0  0
    5.3883    2.1148    1.1358 H   0  0  0  0  0  0  0  0  0  0  0  0
    4.5571    1.4251    2.5465 H   0  0  0  0  0  0  0  0  0  0  0  0
    6.6150    1.1049    3.4516 H   0  0  0  0  0  0  0  0  0  0  0  0
    7.4363    1.4903    1.8840 H   0  0  0  0  0  0  0  0  0  0  0  0
    7.7940   -0.7126    1.4550 H   0  0  0  0  0  0  0  0  0  0  0  0
    7.1235   -1.1092    3.0518 H   0  0  0  0  0  0  0  0  0  0  0  0
    5.0448   -1.7499    2.2188 H   0  0  0  0  0  0  0  0  0  0  0  0
    5.9577   -1.8635    0.6961 H   0  0  0  0  0  0  0  0  0  0  0  0
  1  2  2  0
  2  3  1  0
  3  4  2  0
  4  5  1  0
  5  6  2  0
  6  7  1  0
  7  8  1  0
  8  9  2  3
  7 10  1  0
 10 11  1  0
 11 12  1  0
 12 13  1  0
 13 14  1  0
  6 15  1  0
 15 16  2  0
 16 17  1  0
 17 18  1  0
 18 19  2  0
 17 20  1  0
 20 21  2  0
 21 22  1  0
 22 23  2  0
 23 24  1  0
  2 25  1  0
 25 26  1  0
 26 27  1  0
 27 28  1  0
 28 29  1  0
 29 30  1  0
  8  3  1  0
 14 10  1  0
 23 16  1  0
 30 26  1  0
 18  5  1  0
  4 31  1  0
  9 32  1  0
 10 33  1  0
 11 34  1  0
 11 35  1  0
 12 36  1  0
 12 37  1  0
 13 38  1  0
 13 39  1  0
 14 40  1  0
 14 41  1  0
 20 42  1  0
 21 43  1  0
 22 44  1  0
 24 45  1  0
 24 46  1  0
 24 47  1  0
 25 48  1  0
 26 49  1  0
 27 50  1  0
 27 51  1  0
 28 52  1  0
 28 53  1  0
 29 54  1  0
 29 55  1  0
 30 56  1  0
 30 57  1  0
M  END
>  <Ligand ID>  (1) 
LIG0003888

>  <Ligand>  (1) 
SMR000013127

>  <SMILES>  (1) 
O=C(c1cc2c(n(c1=N)C1CCCC1)nc1n(c2=O)cccc1C)NC1CCCC1

>  <CID>  (1) 
653589.0

>  <ChEMBL ID>  (1) 
nan

>  <InChiKey>  (1) 
OTOYPUZUQZCTOG-UHFFFAOYSA-N

>  <InChi>  (1) 
InChI=1S/C23H27N5O2/c1-14-7-6-12-27-20(14)26-21-18(23(27)30)13-17(22(29)25-15-8-2-3-9-15)19(24)28(21)16-10-4-5-11-16/h6-7,12-13,15-16,24H,2-5,8-11H2,1H3,(H,25,29)

>  <IUPAC Name>  (1) 
N,7-dicyclopentyl-6-imino-11-methyl-2-oxo-1,7,9-triazatricyclo[8.4.0.03,8]tetradeca-3(8),4,9,11,13-pentaene-5-carboxamide

$$$$
