
     RDKit          3D

 36 37  0  0  0  0  0  0  0  0999 V2000
    0.9615   -2.0552   -0.6132 O   0  0  0  0  0  0  0  0  0  0  0  0
    1.1252   -0.8279   -0.2901 C   0  0  0  0  0  0  0  0  0  0  0  0
    2.4596   -0.4068    0.0062 C   0  0  0  0  0  0  0  0  0  0  0  0
    3.4836   -1.3558   -0.0768 C   0  0  0  0  0  0  0  0  0  0  0  0
    3.2417   -2.6742   -0.4336 O   0  0  0  0  0  0  0  0  0  0  0  0
    4.8016   -1.0020    0.2008 C   0  0  0  0  0  0  0  0  0  0  0  0
    5.0818    0.3089    0.5613 C   0  0  0  0  0  0  0  0  0  0  0  0
    4.1107    1.1669    0.6298 O   0  0  0  0  0  0  0  0  0  0  0  0
    2.8500    0.8577    0.3714 C   0  0  0  0  0  0  0  0  0  0  0  0
    1.9950    1.7554    0.4664 O   0  0  0  0  0  0  0  0  0  0  0  0
    6.5085    0.6617    0.8544 C   0  0  0  0  0  0  0  0  0  0  0  0
   -0.0702   -0.0162   -0.2655 C   0  0  0  0  0  0  0  0  0  0  0  0
   -1.2346   -0.5950   -0.5755 C   0  0  0  0  0  0  0  0  0  0  0  0
   -2.4560    0.1757   -0.5647 N   0  0  0  0  0  0  0  0  0  0  0  0
   -3.5239   -0.0902   -1.5202 C   0  0  0  0  0  0  0  0  0  0  0  0
   -4.8683    0.3086   -0.9800 C   0  0  0  0  0  0  0  0  0  0  0  0
   -4.8603   -0.0063    0.4995 C   0  0  0  0  0  0  0  0  0  0  0  0
   -3.8692    0.8675    1.2431 C   0  0  0  0  0  0  0  0  0  0  0  0
   -2.6720    1.2441    0.3943 C   0  0  0  0  0  0  0  0  0  0  0  0
    2.7732   -3.2521    0.2651 H   0  0  0  0  0  0  0  0  0  0  0  0
    5.5756   -1.7376    0.1336 H   0  0  0  0  0  0  0  0  0  0  0  0
    7.0313   -0.1805    1.3852 H   0  0  0  0  0  0  0  0  0  0  0  0
    7.0557    0.9211   -0.0597 H   0  0  0  0  0  0  0  0  0  0  0  0
    6.4819    1.5033    1.5811 H   0  0  0  0  0  0  0  0  0  0  0  0
   -0.1235    1.0286   -0.0185 H   0  0  0  0  0  0  0  0  0  0  0  0
   -1.3271   -1.6319   -0.8418 H   0  0  0  0  0  0  0  0  0  0  0  0
   -3.3071    0.3972   -2.5143 H   0  0  0  0  0  0  0  0  0  0  0  0
   -3.5736   -1.1855   -1.7524 H   0  0  0  0  0  0  0  0  0  0  0  0
   -5.0262    1.3894   -1.1688 H   0  0  0  0  0  0  0  0  0  0  0  0
   -5.6357   -0.3233   -1.4566 H   0  0  0  0  0  0  0  0  0  0  0  0
   -5.8941    0.1367    0.8586 H   0  0  0  0  0  0  0  0  0  0  0  0
   -4.5281   -1.0676    0.6009 H   0  0  0  0  0  0  0  0  0  0  0  0
   -3.4879    0.3301    2.1413 H   0  0  0  0  0  0  0  0  0  0  0  0
   -4.3916    1.7986    1.6115 H   0  0  0  0  0  0  0  0  0  0  0  0
   -2.8725    2.1684   -0.2021 H   0  0  0  0  0  0  0  0  0  0  0  0
   -1.8151    1.3884    1.0629 H   0  0  0  0  0  0  0  0  0  0  0  0
  1  2  2  0
  2  3  1  0
  3  4  2  0
  4  5  1  0
  4  6  1  0
  6  7  2  0
  7  8  1  0
  8  9  1  0
  9 10  2  0
  7 11  1  0
  2 12  1  0
 12 13  2  0
 13 14  1  0
 14 15  1  0
 15 16  1  0
 16 17  1  0
 17 18  1  0
 18 19  1  0
  9  3  1  0
 19 14  1  0
  5 20  1  0
  6 21  1  0
 11 22  1  0
 11 23  1  0
 11 24  1  0
 12 25  1  0
 13 26  1  0
 15 27  1  0
 15 28  1  0
 16 29  1  0
 16 30  1  0
 17 31  1  0
 17 32  1  0
 18 33  1  0
 18 34  1  0
 19 35  1  0
 19 36  1  0
M  END
>  <Ligand ID>  (1) 
LIG0000225

>  <Ligand>  (1) 
4-hydroxy-6-methyl-3-[(E)-3-piperidin-1-ylprop-2-enoyl]pyran-2-one

>  <SMILES>  (1) 
O=C(c1c(O)cc(oc1=O)C)/C=C/N1CCCCC1

>  <CID>  (1) 
136154073.0

>  <ChEMBL ID>  (1) 
nan

>  <InChiKey>  (1) 
JLBZECYIJRXUDH-VMPITWQZSA-N

>  <InChi>  (1) 
InChI=1S/C14H17NO4/c1-10-9-12(17)13(14(18)19-10)11(16)5-8-15-6-3-2-4-7-15/h5,8-9,17H,2-4,6-7H2,1H3/b8-5+

>  <IUPAC Name>  (1) 
4-hydroxy-6-methyl-3-[(E)-3-piperidin-1-ylprop-2-enoyl]pyran-2-one

$$$$
