
     RDKit          3D

 39 40  0  0  0  0  0  0  0  0999 V2000
    6.9092    1.4344    0.2124 O   0  0  0  0  0  0  0  0  0  0  0  0
    5.8052    1.2920   -0.6438 C   0  0  0  0  0  0  0  0  0  0  0  0
    5.3141    2.2669   -1.2430 O   0  0  0  0  0  0  0  0  0  0  0  0
    5.2423   -0.0623   -0.8108 C   0  0  0  0  0  0  0  0  0  0  0  0
    3.9648   -0.2134    0.0121 C   0  0  0  0  0  0  0  0  0  0  0  0
    3.4255   -1.5979   -0.1847 C   0  0  0  0  0  0  0  0  0  0  0  0
    2.2652   -1.7892    0.5298 O   0  0  0  0  0  0  0  0  0  0  0  0
    1.0437   -1.2138    0.4420 C   0  0  0  0  0  0  0  0  0  0  0  0
    0.6285   -0.2602   -0.4499 C   0  0  0  0  0  0  0  0  0  0  0  0
   -0.6522    0.2591   -0.4397 C   0  0  0  0  0  0  0  0  0  0  0  0
   -1.5814   -0.1527    0.4635 C   0  0  0  0  0  0  0  0  0  0  0  0
   -1.1926   -1.1274    1.3911 C   0  0  0  0  0  0  0  0  0  0  0  0
    0.0813   -1.6361    1.3735 C   0  0  0  0  0  0  0  0  0  0  0  0
   -2.9560    0.2926    0.5590 C   0  0  0  0  0  0  0  0  0  0  0  0
   -3.2441    1.0921    1.6790 C   0  0  0  0  0  0  0  0  0  0  0  0
   -4.4901    1.6025    1.9157 C   0  0  0  0  0  0  0  0  0  0  0  0
   -5.4857    1.3125    1.0139 C   0  0  0  0  0  0  0  0  0  0  0  0
   -5.2207    0.5362   -0.0799 C   0  0  0  0  0  0  0  0  0  0  0  0
   -3.9448   -0.0020   -0.3462 C   0  0  0  0  0  0  0  0  0  0  0  0
   -3.8437   -0.7477   -1.4640 O   0  0  0  0  0  0  0  0  0  0  0  0
   -3.6037   -0.4933   -2.7859 C   0  0  0  0  0  0  0  0  0  0  0  0
   -4.5807    0.3678   -3.3248 F   0  0  0  0  0  0  0  0  0  0  0  0
   -3.6371   -1.6765   -3.5581 F   0  0  0  0  0  0  0  0  0  0  0  0
   -2.4065    0.1043   -3.0575 F   0  0  0  0  0  0  0  0  0  0  0  0
    7.2732    2.3846    0.3392 H   0  0  0  0  0  0  0  0  0  0  0  0
    5.9309   -0.8636   -0.5091 H   0  0  0  0  0  0  0  0  0  0  0  0
    4.9388   -0.2556   -1.8631 H   0  0  0  0  0  0  0  0  0  0  0  0
    3.2437    0.5746   -0.1812 H   0  0  0  0  0  0  0  0  0  0  0  0
    4.3127   -0.1617    1.0737 H   0  0  0  0  0  0  0  0  0  0  0  0
    3.1889   -1.8041   -1.2604 H   0  0  0  0  0  0  0  0  0  0  0  0
    4.2318   -2.3171    0.0846 H   0  0  0  0  0  0  0  0  0  0  0  0
    1.2859    0.1140   -1.2161 H   0  0  0  0  0  0  0  0  0  0  0  0
   -0.9272    1.0234   -1.1466 H   0  0  0  0  0  0  0  0  0  0  0  0
   -1.8940   -1.4952    2.1383 H   0  0  0  0  0  0  0  0  0  0  0  0
    0.3328   -2.3926    2.1169 H   0  0  0  0  0  0  0  0  0  0  0  0
   -2.4701    1.3351    2.4071 H   0  0  0  0  0  0  0  0  0  0  0  0
   -4.7433    2.2195    2.7662 H   0  0  0  0  0  0  0  0  0  0  0  0
   -6.4900    1.7074    1.1782 H   0  0  0  0  0  0  0  0  0  0  0  0
   -6.0544    0.3436   -0.7562 H   0  0  0  0  0  0  0  0  0  0  0  0
  1  2  1  0
  2  3  2  0
  2  4  1  0
  4  5  1  0
  5  6  1  0
  6  7  1  0
  7  8  1  0
  8  9  2  0
  9 10  1  0
 10 11  2  0
 11 12  1  0
 12 13  2  0
 11 14  1  0
 14 15  2  0
 15 16  1  0
 16 17  2  0
 17 18  1  0
 18 19  2  0
 19 20  1  0
 20 21  1  0
 21 22  1  0
 21 23  1  0
 21 24  1  0
 13  8  1  0
 19 14  1  0
  1 25  1  0
  4 26  1  0
  4 27  1  0
  5 28  1  0
  5 29  1  0
  6 30  1  0
  6 31  1  0
  9 32  1  0
 10 33  1  0
 12 34  1  0
 13 35  1  0
 15 36  1  0
 16 37  1  0
 17 38  1  0
 18 39  1  0
M  END
>  <Ligand ID>  (1) 
LIG0002574

>  <Ligand>  (1) 
CHEMBL3974501

>  <SMILES>  (1) 
OC(=O)CCCOc1ccc(cc1)c1ccccc1OC(F)(F)F

>  <CID>  (1) 
134154330.0

>  <ChEMBL ID>  (1) 
nan

>  <InChiKey>  (1) 
QLHVQWAXLGROAL-UHFFFAOYSA-N

>  <InChi>  (1) 
InChI=1S/C17H15F3O4/c18-17(19,20)24-15-5-2-1-4-14(15)12-7-9-13(10-8-12)23-11-3-6-16(21)22/h1-2,4-5,7-10H,3,6,11H2,(H,21,22)

>  <IUPAC Name>  (1) 
4-[4-[2-(trifluoromethoxy)phenyl]phenoxy]butanoic acid

$$$$
