
     RDKit          3D

 28 30  0  0  0  0  0  0  0  0999 V2000
   -5.6508   -0.8054   -0.8810 N   0  0  0  0  0  0  0  0  0  0  0  0
   -4.4096   -0.6490   -0.1977 C   0  0  0  0  0  0  0  0  0  0  0  0
   -4.3184   -0.8522    1.1394 N   0  0  0  0  0  0  0  0  0  0  0  0
   -3.1283   -0.7016    1.7915 C   0  0  0  0  0  0  0  0  0  0  0  0
   -3.0306   -0.8873    3.0322 O   0  0  0  0  0  0  0  0  0  0  0  0
   -2.0134   -0.3374    1.0648 C   0  0  0  0  0  0  0  0  0  0  0  0
   -2.1560   -0.1417   -0.2949 C   0  0  0  0  0  0  0  0  0  0  0  0
   -3.3258   -0.2895   -0.9367 N   0  0  0  0  0  0  0  0  0  0  0  0
   -0.9320    0.2005   -0.7476 N   0  0  0  0  0  0  0  0  0  0  0  0
   -0.0613    0.2230    0.2550 N   0  0  0  0  0  0  0  0  0  0  0  0
   -0.7113   -0.1017    1.3524 N   0  0  0  0  0  0  0  0  0  0  0  0
    1.3082    0.5541    0.0594 C   0  0  0  0  0  0  0  0  0  0  0  0
    1.5573    1.8302   -0.4472 C   0  0  0  0  0  0  0  0  0  0  0  0
    2.8237    2.2953   -0.6896 C   0  0  0  0  0  0  0  0  0  0  0  0
    3.8757    1.4328   -0.4073 C   0  0  0  0  0  0  0  0  0  0  0  0
    3.6423    0.1675    0.0943 C   0  0  0  0  0  0  0  0  0  0  0  0
    2.3532   -0.2736    0.3286 C   0  0  0  0  0  0  0  0  0  0  0  0
    4.7901   -0.6689    0.3618 C   0  0  0  0  0  0  0  0  0  0  0  0
    5.9360   -0.2140    0.1292 O   0  0  0  0  0  0  0  0  0  0  0  0
    4.7075   -1.9591    0.8656 O   0  0  0  0  0  0  0  0  0  0  0  0
   -6.3964   -0.1228   -0.6464 H   0  0  0  0  0  0  0  0  0  0  0  0
   -5.8360   -1.5507   -1.5828 H   0  0  0  0  0  0  0  0  0  0  0  0
   -5.1893   -1.1312    1.6747 H   0  0  0  0  0  0  0  0  0  0  0  0
    0.7334    2.5115   -0.6706 H   0  0  0  0  0  0  0  0  0  0  0  0
    2.9789    3.2788   -1.0782 H   0  0  0  0  0  0  0  0  0  0  0  0
    4.8648    1.8194   -0.6057 H   0  0  0  0  0  0  0  0  0  0  0  0
    2.1533   -1.2617    0.7212 H   0  0  0  0  0  0  0  0  0  0  0  0
    5.4348   -2.3655    1.4538 H   0  0  0  0  0  0  0  0  0  0  0  0
  1  2  1  0
  2  3  1  0
  3  4  1  0
  4  5  2  0
  4  6  1  0
  6  7  1  0
  7  8  1  0
  7  9  2  0
  9 10  1  0
 10 11  1  0
 10 12  1  0
 12 13  2  0
 13 14  1  0
 14 15  2  0
 15 16  1  0
 16 17  2  0
 16 18  1  0
 18 19  2  0
 18 20  1  0
  8  2  2  0
 17 12  1  0
 11  6  2  0
  1 21  1  0
  1 22  1  0
  3 23  1  0
 13 24  1  0
 14 25  1  0
 15 26  1  0
 17 27  1  0
 20 28  1  0
M  END
>  <Ligand ID>  (1) 
LIG0005861

>  <Ligand>  (1) 
3-(5-AMINO-7-HYDROXY-[1,2,3]TRIAZOLO[4,5-D]PYRIMIDIN-2-YL)-BENZOIC ACID

>  <SMILES>  (1) 
Nc1[nH]c(=O)c2c(n1)nn(n2)c1cccc(c1)C(=O)O

>  <CID>  (1) 
135460974.0

>  <ChEMBL ID>  (1) 
nan

>  <InChiKey>  (1) 
KNLLRZNGRRRPEW-UHFFFAOYSA-N

>  <InChi>  (1) 
InChI=1S/C11H8N6O3/c12-11-13-8-7(9(18)14-11)15-17(16-8)6-3-1-2-5(4-6)10(19)20/h1-4H,(H,19,20)(H3,12,13,14,16,18)

>  <IUPAC Name>  (1) 
3-(5-amino-7-oxo-6H-triazolo[4,5-d]pyrimidin-2-yl)benzoic acid

$$$$
