
     RDKit          3D

 57 61  0  0  0  0  0  0  0  0999 V2000
    9.4196    0.9590    1.8954 O   0  0  0  0  0  0  0  0  0  0  0  0
    8.4629    0.0698    1.3745 C   0  0  0  0  0  0  0  0  0  0  0  0
    8.1415   -0.8725    2.1476 O   0  0  0  0  0  0  0  0  0  0  0  0
    7.9150    0.2742    0.0251 C   0  0  1  0  0  0  0  0  0  0  0  0
    6.4200    0.4504   -0.0365 C   0  0  0  0  0  0  0  0  0  0  0  0
    5.6557   -0.7118    0.4850 C   0  0  0  0  0  0  0  0  0  0  0  0
    4.1722   -0.5033    0.3906 C   0  0  0  0  0  0  0  0  0  0  0  0
    3.5365   -0.9103   -0.7622 C   0  0  0  0  0  0  0  0  0  0  0  0
    2.1788   -0.7465   -0.9099 C   0  0  0  0  0  0  0  0  0  0  0  0
    1.4553   -0.1576    0.1358 C   0  0  0  0  0  0  0  0  0  0  0  0
    2.0589    0.2506    1.2785 C   0  0  0  0  0  0  0  0  0  0  0  0
    3.4418    0.0736    1.4058 C   0  0  0  0  0  0  0  0  0  0  0  0
    1.3284    0.8176    2.2707 F   0  0  0  0  0  0  0  0  0  0  0  0
    0.0180   -0.0250   -0.1072 C   0  0  0  0  0  0  0  0  0  0  0  0
   -0.8214   -0.2392   -0.9013 N   0  0  0  0  0  0  0  0  0  0  0  0
   -2.1011   -0.0152   -0.8784 C   0  0  0  0  0  0  0  0  0  0  0  0
   -2.5625    0.5828    0.2888 C   0  0  0  0  0  0  0  0  0  0  0  0
   -1.0482    0.7677    1.2689 S   0  0  0  0  0  0  0  0  0  0  0  0
   -3.8268    0.9011    0.5314 N   0  0  0  0  0  0  0  0  0  0  0  0
   -4.8128    0.6555   -0.3846 C   0  0  0  0  0  0  0  0  0  0  0  0
   -4.3950    0.0640   -1.5534 C   0  0  0  0  0  0  0  0  0  0  0  0
   -3.0914   -0.2764   -1.8311 C   0  0  0  0  0  0  0  0  0  0  0  0
   -6.2137    1.0178   -0.0798 C   0  0  0  0  0  0  0  0  0  0  0  0
   -6.6919    2.2448   -0.7529 C   0  0  0  0  0  0  0  0  0  0  0  0
   -6.5047    2.2141    0.7648 C   0  0  0  0  0  0  0  0  0  0  0  0
   -7.1488   -0.1360    0.1024 C   0  0  0  0  0  0  0  0  0  0  0  0
   -7.7054   -0.7990   -0.9898 C   0  0  0  0  0  0  0  0  0  0  0  0
   -8.5627   -1.8656   -0.8531 C   0  0  0  0  0  0  0  0  0  0  0  0
   -8.9039   -2.3205    0.4251 C   0  0  0  0  0  0  0  0  0  0  0  0
   -8.3604   -1.6738    1.5228 C   0  0  0  0  0  0  0  0  0  0  0  0
   -7.4954   -0.5973    1.3627 C   0  0  0  0  0  0  0  0  0  0  0  0
    8.5969    1.4158   -0.5720 N   0  0  0  0  0  0  0  0  0  0  0  0
    8.2803   -0.9836   -0.7718 C   0  0  0  0  0  0  0  0  0  0  0  0
    9.4974    1.0860    2.9043 H   0  0  0  0  0  0  0  0  0  0  0  0
    6.1931    0.6430   -1.1264 H   0  0  0  0  0  0  0  0  0  0  0  0
    6.1246    1.4207    0.4556 H   0  0  0  0  0  0  0  0  0  0  0  0
    5.9548   -0.9466    1.5165 H   0  0  0  0  0  0  0  0  0  0  0  0
    5.9109   -1.5968   -0.1324 H   0  0  0  0  0  0  0  0  0  0  0  0
    4.0828   -1.3642   -1.5732 H   0  0  0  0  0  0  0  0  0  0  0  0
    1.6430   -1.0620   -1.8183 H   0  0  0  0  0  0  0  0  0  0  0  0
    3.9645    0.3846    2.3008 H   0  0  0  0  0  0  0  0  0  0  0  0
   -5.1264   -0.1553   -2.3188 H   0  0  0  0  0  0  0  0  0  0  0  0
   -2.8500   -0.7445   -2.7880 H   0  0  0  0  0  0  0  0  0  0  0  0
   -7.7226    2.4139   -1.0770 H   0  0  0  0  0  0  0  0  0  0  0  0
   -5.9676    2.8903   -1.2964 H   0  0  0  0  0  0  0  0  0  0  0  0
   -7.4061    2.2302    1.4010 H   0  0  0  0  0  0  0  0  0  0  0  0
   -5.6795    2.8451    1.1673 H   0  0  0  0  0  0  0  0  0  0  0  0
   -7.4768   -0.4877   -1.9995 H   0  0  0  0  0  0  0  0  0  0  0  0
   -8.9729   -2.3498   -1.7516 H   0  0  0  0  0  0  0  0  0  0  0  0
   -9.5827   -3.1637    0.5092 H   0  0  0  0  0  0  0  0  0  0  0  0
   -8.6348   -2.0390    2.5113 H   0  0  0  0  0  0  0  0  0  0  0  0
   -7.0975   -0.1269    2.2568 H   0  0  0  0  0  0  0  0  0  0  0  0
    9.3161    1.8289    0.0851 H   0  0  0  0  0  0  0  0  0  0  0  0
    7.9145    2.2138   -0.7335 H   0  0  0  0  0  0  0  0  0  0  0  0
    9.3631   -0.9820   -0.9988 H   0  0  0  0  0  0  0  0  0  0  0  0
    8.0541   -1.8637   -0.1687 H   0  0  0  0  0  0  0  0  0  0  0  0
    7.6619   -0.9997   -1.6852 H   0  0  0  0  0  0  0  0  0  0  0  0
  1  2  1  0
  2  3  2  0
  2  4  1  0
  4  5  1  0
  5  6  1  0
  6  7  1  0
  7  8  2  0
  8  9  1  0
  9 10  2  0
 10 11  1  0
 11 12  2  0
 11 13  1  0
 10 14  1  0
 14 15  2  0
 15 16  1  0
 16 17  2  0
 17 18  1  0
 17 19  1  0
 19 20  2  0
 20 21  1  0
 21 22  2  0
 20 23  1  0
 23 24  1  0
 24 25  1  0
 23 26  1  0
 26 27  2  0
 27 28  1  0
 28 29  2  0
 29 30  1  0
 30 31  2  0
  4 32  1  6
  4 33  1  0
 12  7  1  0
 18 14  1  0
 25 23  1  0
 31 26  1  0
 22 16  1  0
  1 34  1  0
  5 35  1  0
  5 36  1  0
  6 37  1  0
  6 38  1  0
  8 39  1  0
  9 40  1  0
 12 41  1  0
 21 42  1  0
 22 43  1  0
 24 44  1  0
 24 45  1  0
 25 46  1  0
 25 47  1  0
 27 48  1  0
 28 49  1  0
 29 50  1  0
 30 51  1  0
 31 52  1  0
 32 53  1  0
 32 54  1  0
 33 55  1  0
 33 56  1  0
 33 57  1  0
M  END
>  <Ligand ID>  (1) 
LIG0005129

>  <Ligand>  (1) 
CHEMBL1950574

>  <SMILES>  (1) 
OC(=O)[C@@](CCc1ccc(c(c1)F)c1nc2c(s1)nc(cc2)C1(CC1)c1ccccc1)(N)C

>  <CID>  (1) 
57335019.0

>  <ChEMBL ID>  (1) 
nan

>  <InChiKey>  (1) 
VTWSHDBNPHFDGO-RUZDIDTESA-N

>  <InChi>  (1) 
InChI=1S/C26H24FN3O2S/c1-25(28,24(31)32)12-11-16-7-8-18(19(27)15-16)22-29-20-9-10-21(30-23(20)33-22)26(13-14-26)17-5-3-2-4-6-17/h2-10,15H,11-14,28H2,1H3,(H,31,32)/t25-/m1/s1

>  <IUPAC Name>  (1) 
(2R)-2-amino-4-[3-fluoro-4-[5-(1-phenylcyclopropyl)-[1,3]thiazolo[5,4-b]pyridin-2-yl]phenyl]-2-methylbutanoic acid

$$$$
