
     RDKit          3D

 65 68  0  0  0  0  0  0  0  0999 V2000
   11.2604    1.5682    0.7419 N   0  0  0  0  0  0  0  0  0  0  0  0
   11.2051    0.1376    0.6878 C   0  0  0  0  0  0  0  0  0  0  0  0
    9.9588   -0.2284   -0.1070 C   0  0  0  0  0  0  0  0  0  0  0  0
    8.8664    0.3294    0.6101 O   0  0  0  0  0  0  0  0  0  0  0  0
    7.5984    0.1309    0.0809 C   0  0  0  0  0  0  0  0  0  0  0  0
    7.3637   -0.5695   -1.0840 C   0  0  0  0  0  0  0  0  0  0  0  0
    6.0902   -0.7165   -1.5308 C   0  0  0  0  0  0  0  0  0  0  0  0
    4.9717   -0.1921   -0.8729 C   0  0  0  0  0  0  0  0  0  0  0  0
    5.2446    0.5016    0.2864 C   0  0  0  0  0  0  0  0  0  0  0  0
    6.5377    0.6710    0.7732 C   0  0  0  0  0  0  0  0  0  0  0  0
    3.7089   -0.3839   -1.4289 N   0  0  0  0  0  0  0  0  0  0  0  0
    2.4631   -0.3662   -0.7608 C   0  0  0  0  0  0  0  0  0  0  0  0
    1.2961   -0.0594   -1.4687 C   0  0  0  0  0  0  0  0  0  0  0  0
    0.0550   -0.0452   -0.8758 C   0  0  0  0  0  0  0  0  0  0  0  0
   -0.0684   -0.3406    0.4636 C   0  0  0  0  0  0  0  0  0  0  0  0
    1.0396   -0.6448    1.1897 C   0  0  0  0  0  0  0  0  0  0  0  0
    2.2907   -0.6551    0.5734 C   0  0  0  0  0  0  0  0  0  0  0  0
   -1.4330   -0.3214    1.1051 C   0  0  0  0  0  0  0  0  0  0  0  0
   -2.0682   -1.6764    1.0106 C   0  0  0  0  0  0  0  0  0  0  0  0
   -3.3168   -1.7562    1.6207 N   0  0  0  0  0  0  0  0  0  0  0  0
   -4.4926   -1.1843    1.2067 C   0  0  0  0  0  0  0  0  0  0  0  0
   -4.7205    0.2788    1.2635 C   0  0  1  0  0  0  0  0  0  0  0  0
   -6.1959    0.5007    0.9653 C   0  0  0  0  0  0  0  0  0  0  0  0
   -7.1177    0.5520    1.9985 C   0  0  0  0  0  0  0  0  0  0  0  0
   -8.4479    0.7566    1.7050 C   0  0  0  0  0  0  0  0  0  0  0  0
   -8.9042    0.9141    0.4129 C   0  0  0  0  0  0  0  0  0  0  0  0
   -7.9769    0.8621   -0.6204 C   0  0  0  0  0  0  0  0  0  0  0  0
   -6.6419    0.6566   -0.3267 C   0  0  0  0  0  0  0  0  0  0  0  0
   -5.7713    0.6137   -1.3920 C   0  0  0  0  0  0  0  0  0  0  0  0
   -6.2349    0.7716   -2.6872 C   0  0  0  0  0  0  0  0  0  0  0  0
   -7.5918    0.9764   -2.9292 C   0  0  0  0  0  0  0  0  0  0  0  0
   -8.0226    1.1214   -4.1103 O   0  0  0  0  0  0  0  0  0  0  0  0
   -8.4298    1.0160   -1.8826 N   0  0  0  0  0  0  0  0  0  0  0  0
  -10.2351    1.1172    0.1413 O   0  0  0  0  0  0  0  0  0  0  0  0
   -4.5529    0.6626    2.6144 O   0  0  0  0  0  0  0  0  0  0  0  0
   10.5407    1.8873    1.4562 H   0  0  0  0  0  0  0  0  0  0  0  0
   10.9016    1.9510   -0.1624 H   0  0  0  0  0  0  0  0  0  0  0  0
   11.0564   -0.2757    1.6918 H   0  0  0  0  0  0  0  0  0  0  0  0
   12.1084   -0.3194    0.2431 H   0  0  0  0  0  0  0  0  0  0  0  0
    9.8603   -1.3202   -0.2535 H   0  0  0  0  0  0  0  0  0  0  0  0
    9.9826    0.2995   -1.0965 H   0  0  0  0  0  0  0  0  0  0  0  0
    8.2011   -0.9868   -1.6158 H   0  0  0  0  0  0  0  0  0  0  0  0
    5.9256   -1.2660   -2.4418 H   0  0  0  0  0  0  0  0  0  0  0  0
    4.4624    0.9497    0.8526 H   0  0  0  0  0  0  0  0  0  0  0  0
    6.7140    1.2198    1.6855 H   0  0  0  0  0  0  0  0  0  0  0  0
    3.6606   -0.5660   -2.4777 H   0  0  0  0  0  0  0  0  0  0  0  0
    1.3337    0.1810   -2.5260 H   0  0  0  0  0  0  0  0  0  0  0  0
   -0.8556    0.1903   -1.4119 H   0  0  0  0  0  0  0  0  0  0  0  0
    0.9519   -0.8772    2.2380 H   0  0  0  0  0  0  0  0  0  0  0  0
    3.1171   -0.9147    1.1995 H   0  0  0  0  0  0  0  0  0  0  0  0
   -2.0334    0.4236    0.5502 H   0  0  0  0  0  0  0  0  0  0  0  0
   -1.2688    0.0030    2.1501 H   0  0  0  0  0  0  0  0  0  0  0  0
   -1.3262   -2.4420    1.4333 H   0  0  0  0  0  0  0  0  0  0  0  0
   -2.1070   -2.0133   -0.0769 H   0  0  0  0  0  0  0  0  0  0  0  0
   -3.4335   -2.6260    2.2104 H   0  0  0  0  0  0  0  0  0  0  0  0
   -4.8050   -1.5993    0.1831 H   0  0  0  0  0  0  0  0  0  0  0  0
   -5.3394   -1.6340    1.8511 H   0  0  0  0  0  0  0  0  0  0  0  0
   -4.1585    0.9437    0.6439 H   0  0  0  0  0  0  0  0  0  0  0  0
   -6.7461    0.4274    3.0049 H   0  0  0  0  0  0  0  0  0  0  0  0
   -9.1865    0.8007    2.4945 H   0  0  0  0  0  0  0  0  0  0  0  0
   -4.7118    0.4562   -1.2438 H   0  0  0  0  0  0  0  0  0  0  0  0
   -5.5202    0.7324   -3.5095 H   0  0  0  0  0  0  0  0  0  0  0  0
   -9.4478    1.1683   -2.0467 H   0  0  0  0  0  0  0  0  0  0  0  0
  -10.8603    0.3209    0.1336 H   0  0  0  0  0  0  0  0  0  0  0  0
   -4.7444   -0.1127    3.2219 H   0  0  0  0  0  0  0  0  0  0  0  0
  1  2  1  0
  2  3  1  0
  3  4  1  0
  4  5  1  0
  5  6  2  0
  6  7  1  0
  7  8  2  0
  8  9  1  0
  9 10  2  0
  8 11  1  0
 11 12  1  0
 12 13  2  0
 13 14  1  0
 14 15  2  0
 15 16  1  0
 16 17  2  0
 15 18  1  0
 18 19  1  0
 19 20  1  0
 20 21  1  0
 21 22  1  0
 22 23  1  0
 23 24  2  0
 24 25  1  0
 25 26  2  0
 26 27  1  0
 27 28  2  0
 28 29  1  0
 29 30  2  0
 30 31  1  0
 31 32  2  0
 31 33  1  0
 26 34  1  0
 22 35  1  0
 10  5  1  0
 17 12  1  0
 28 23  1  0
 33 27  1  0
  1 36  1  0
  1 37  1  0
  2 38  1  0
  2 39  1  0
  3 40  1  0
  3 41  1  0
  6 42  1  0
  7 43  1  0
  9 44  1  0
 10 45  1  0
 11 46  1  0
 13 47  1  0
 14 48  1  0
 16 49  1  0
 17 50  1  0
 18 51  1  0
 18 52  1  0
 19 53  1  0
 19 54  1  0
 20 55  1  0
 21 56  1  0
 21 57  1  0
 22 58  1  6
 24 59  1  0
 25 60  1  0
 29 61  1  0
 30 62  1  0
 33 63  1  0
 34 64  1  0
 35 65  1  0
M  END
>  <Ligand ID>  (1) 
LIG0002554

>  <Ligand>  (1) 
CHEMBL3298328

>  <SMILES>  (1) 
NCCOc1ccc(cc1)Nc1ccc(cc1)CCNC[C@@H](c1ccc(c2c1ccc(=O)[nH]2)O)O

>  <CID>  (1) 
66796015.0

>  <ChEMBL ID>  (1) 
nan

>  <InChiKey>  (1) 
PXGACZIIBAUFAF-VWLOTQADSA-N

>  <InChi>  (1) 
InChI=1S/C27H30N4O4/c28-14-16-35-21-7-5-20(6-8-21)30-19-3-1-18(2-4-19)13-15-29-17-25(33)22-9-11-24(32)27-23(22)10-12-26(34)31-27/h1-12,25,29-30,32-33H,13-17,28H2,(H,31,34)/t25-/m0/s1

>  <IUPAC Name>  (1) 
5-[(1R)-2-[2-[4-[4-(2-aminoethoxy)anilino]phenyl]ethylamino]-1-hydroxyethyl]-8-hydroxy-1H-quinolin-2-one

$$$$
