
     RDKit          3D

 71 71  0  0  0  0  0  0  0  0999 V2000
   -2.0558   -1.3604    0.1986 C   0  0  0  0  0  0  0  0  0  0  0  0
   -0.6515   -1.1615   -0.2547 C   0  0  0  0  0  0  0  0  0  0  0  0
   -0.0403    0.0703    0.1893 N   0  0  0  0  0  0  0  0  0  0  0  0
   -0.6492    1.2002   -0.4460 C   0  0  0  0  0  0  0  0  0  0  0  0
   -0.0850    2.5167    0.0384 C   0  0  0  0  0  0  0  0  0  0  0  0
    1.3634   -0.0263   -0.1716 C   0  0  0  0  0  0  0  0  0  0  0  0
    2.0955   -1.0618    0.6820 C   0  0  0  0  0  0  0  0  0  0  0  0
   -7.9030   -0.2070    2.2333 C   0  0  0  0  0  0  0  0  0  0  0  0
   -6.5823    0.1044    2.4952 O   0  0  0  0  0  0  0  0  0  0  0  0
   -6.0819    0.8442    1.4841 N   0  0  0  0  0  0  0  0  0  0  0  0
   -4.9612    0.3840    0.7205 C   0  0  0  0  0  0  0  0  0  0  0  0
   -5.1397   -0.1328   -0.5550 C   0  0  0  0  0  0  0  0  0  0  0  0
   -3.9957   -0.5771   -1.2156 C   0  0  0  0  0  0  0  0  0  0  0  0
   -2.8095   -0.4806   -0.5900 N   0  0  0  0  0  0  0  0  0  0  0  0
   -2.6579    0.0229    0.6488 C   0  0  0  0  0  0  0  0  0  0  0  0
   -1.5298    0.0777    1.1612 O   0  0  0  0  0  0  0  0  0  0  0  0
   -3.7436    0.4574    1.3051 N   0  0  0  0  0  0  0  0  0  0  0  0
   -1.6200   -0.9275   -1.2778 C   0  0  2  0  0  0  0  0  0  0  0  0
   -0.6073   -1.3382   -0.4558 O   0  0  0  0  0  0  0  0  0  0  0  0
    0.5962   -1.2035   -1.0841 C   0  0  1  0  0  0  0  0  0  0  0  0
    0.3565   -0.3982   -2.3567 C   0  0  2  0  0  0  0  0  0  0  0  0
   -0.9867    0.2386   -2.0545 C   0  0  1  0  0  0  0  0  0  0  0  0
   -1.7343    0.5541   -3.1655 O   0  0  0  0  0  0  0  0  0  0  0  0
    0.2089   -1.3016   -3.3947 O   0  0  0  0  0  0  0  0  0  0  0  0
    1.4516   -0.2617   -0.2067 C   0  0  0  0  0  0  0  0  0  0  0  0
    2.7252   -0.1295   -0.7306 O   0  0  0  0  0  0  0  0  0  0  0  0
    3.4743    1.2257   -0.1200 P   0  0  0  0  0  0  0  0  0  0  0  0
    4.0130    2.0517   -1.3164 O   0  0  0  0  0  0  0  0  0  0  0  0
    4.7382    0.9674    0.9178 O   0  0  0  0  0  0  0  0  0  0  0  0
    4.6338   -0.3197    1.9527 P   0  0  0  0  0  0  0  0  0  0  0  0
    3.9303   -1.5251    1.4262 O   0  0  0  0  0  0  0  0  0  0  0  0
    6.2365   -0.7972    2.3607 O   0  0  0  0  0  0  0  0  0  0  0  0
    7.3037   -0.1712    1.2162 P   0  0  0  0  0  0  0  0  0  0  0  0
    7.9402    1.1081    1.7244 O   0  0  0  0  0  0  0  0  0  0  0  0
    6.4021    0.1496   -0.1887 O   0  0  0  0  0  0  0  0  0  0  0  0
    8.4910   -1.3061    0.7813 O   0  0  0  0  0  0  0  0  0  0  0  0
    3.9403    0.1360    3.4484 O   0  0  0  0  0  0  0  0  0  0  0  0
    2.3782    2.2918    0.6396 O   0  0  0  0  0  0  0  0  0  0  0  0
   -2.4271   -0.5767    0.8826 H   0  0  0  0  0  0  0  0  0  0  0  0
   -2.7312   -1.4552   -0.6995 H   0  0  0  0  0  0  0  0  0  0  0  0
   -2.1769   -2.3525    0.7066 H   0  0  0  0  0  0  0  0  0  0  0  0
   -0.6065   -1.1502   -1.3793 H   0  0  0  0  0  0  0  0  0  0  0  0
   -0.0356   -2.0464    0.0538 H   0  0  0  0  0  0  0  0  0  0  0  0
   -1.7430    1.1529   -0.1355 H   0  0  0  0  0  0  0  0  0  0  0  0
   -0.5437    1.1305   -1.5464 H   0  0  0  0  0  0  0  0  0  0  0  0
   -0.7978    3.0447    0.7384 H   0  0  0  0  0  0  0  0  0  0  0  0
    0.8594    2.4223    0.6045 H   0  0  0  0  0  0  0  0  0  0  0  0
    0.0568    3.1745   -0.8432 H   0  0  0  0  0  0  0  0  0  0  0  0
    1.4724   -0.4318   -1.2258 H   0  0  0  0  0  0  0  0  0  0  0  0
    1.9094    0.9053   -0.1362 H   0  0  0  0  0  0  0  0  0  0  0  0
    1.3857   -1.3849    1.4912 H   0  0  0  0  0  0  0  0  0  0  0  0
    2.3894   -1.9718    0.1114 H   0  0  0  0  0  0  0  0  0  0  0  0
    3.0115   -0.6380    1.1415 H   0  0  0  0  0  0  0  0  0  0  0  0
   -8.4683   -0.5188    3.1276 H   0  0  0  0  0  0  0  0  0  0  0  0
   -7.8857   -1.1094    1.5637 H   0  0  0  0  0  0  0  0  0  0  0  0
   -8.4891    0.6190    1.7837 H   0  0  0  0  0  0  0  0  0  0  0  0
   -6.4916    1.7457    1.2333 H   0  0  0  0  0  0  0  0  0  0  0  0
   -6.1157   -0.1919   -1.0294 H   0  0  0  0  0  0  0  0  0  0  0  0
   -4.0381   -1.0044   -2.2080 H   0  0  0  0  0  0  0  0  0  0  0  0
   -1.8884   -1.6959   -2.0198 H   0  0  0  0  0  0  0  0  0  0  0  0
    1.1483   -2.1386   -1.2826 H   0  0  0  0  0  0  0  0  0  0  0  0
    1.1628    0.3386   -2.5395 H   0  0  0  0  0  0  0  0  0  0  0  0
   -0.8679    1.1144   -1.3623 H   0  0  0  0  0  0  0  0  0  0  0  0
   -1.2100    0.9855   -3.8760 H   0  0  0  0  0  0  0  0  0  0  0  0
   -0.2504   -0.9039   -4.1826 H   0  0  0  0  0  0  0  0  0  0  0  0
    1.4997   -0.6218    0.8115 H   0  0  0  0  0  0  0  0  0  0  0  0
    0.9377    0.7444   -0.1741 H   0  0  0  0  0  0  0  0  0  0  0  0
    6.9542    0.2096   -0.9844 H   0  0  0  0  0  0  0  0  0  0  0  0
    9.0449   -0.8573    0.0916 H   0  0  0  0  0  0  0  0  0  0  0  0
    4.6017    0.7197    3.9323 H   0  0  0  0  0  0  0  0  0  0  0  0
    1.8885    1.7760    1.3115 H   0  0  0  0  0  0  0  0  0  0  0  0
  1  2  1  0
  2  3  1  0
  3  4  1  0
  4  5  1  0
  3  6  1  0
  6  7  1  0
  8  9  1  0
  9 10  1  0
 10 11  1  0
 11 12  1  0
 12 13  2  0
 13 14  1  0
 14 15  1  0
 15 16  2  0
 15 17  1  0
 14 18  1  0
 18 19  1  0
 19 20  1  0
 20 21  1  0
 21 22  1  0
 22 23  1  0
 21 24  1  0
 20 25  1  0
 25 26  1  0
 26 27  1  0
 27 28  2  0
 27 29  1  0
 29 30  1  0
 30 31  2  0
 30 32  1  0
 32 33  1  0
 33 34  2  0
 33 35  1  0
 33 36  1  0
 30 37  1  0
 27 38  1  0
 17 11  2  0
 22 18  1  0
  1 39  1  0
  1 40  1  0
  1 41  1  0
  2 42  1  0
  2 43  1  0
  4 44  1  0
  4 45  1  0
  5 46  1  0
  5 47  1  0
  5 48  1  0
  6 49  1  0
  6 50  1  0
  7 51  1  0
  7 52  1  0
  7 53  1  0
  8 54  1  0
  8 55  1  0
  8 56  1  0
 10 57  1  0
 12 58  1  0
 13 59  1  0
 18 60  1  6
 20 61  1  6
 21 62  1  6
 22 63  1  1
 23 64  1  0
 24 65  1  0
 25 66  1  0
 25 67  1  0
 35 68  1  0
 36 69  1  0
 37 70  1  0
 38 71  1  0
M  END
>  <Ligand ID>  (1) 
LIG0004378

>  <Ligand>  (1) 
CHEMBL1083764

>  <SMILES>  (1) 
CCN(CC)CC.CONc1ccn(c(=O)n1)[C@@H]1O[C@@H]([C@H]([C@H]1O)O)COP(=O)(OP(=O)(OP(=O)(O)O)O)O

>  <CID>  (1) 
46831691.0

>  <ChEMBL ID>  (1) 
nan

>  <InChiKey>  (1) 
YSTSARZCYLQSIB-BKZSBQMKSA-N

>  <InChi>  (1) 
InChI=1S/C10H18N3O15P3.C6H15N/c1-24-12-6-2-3-13(10(16)11-6)9-8(15)7(14)5(26-9)4-25-30(20,21)28-31(22,23)27-29(17,18)19;1-4-7(5-2)6-3/h2-3,5,7-9,14-15H,4H2,1H3,(H,20,21)(H,22,23)(H,11,12,16)(H2,17,18,19);4-6H2,1-3H3/t5-,7-,8-,9-;/m1./s1

>  <IUPAC Name>  (1) 
N,N-diethylethanamine;[[(2R,3S,4R,5R)-3,4-dihydroxy-5-[4-(methoxyamino)-2-oxopyrimidin-1-yl]oxolan-2-yl]methoxy-hydroxyphosphoryl] phosphono hydrogen phosphate

$$$$
