
     RDKit          3D

 29 30  0  0  0  0  0  0  0  0999 V2000
    4.2090    0.7789    0.2893 C   0  0  0  0  0  0  0  0  0  0  0  0
    3.2690   -0.1833    0.2978 C   0  0  0  0  0  0  0  0  0  0  0  0
    2.4988   -0.4199   -0.9540 C   0  0  0  0  0  0  0  0  0  0  0  0
    1.0721   -0.2224   -0.7946 N   0  0  0  0  0  0  0  0  0  0  0  0
    0.8026    1.1601   -0.5666 C   0  0  0  0  0  0  0  0  0  0  0  0
   -0.6037    1.5893   -0.5357 C   0  0  0  0  0  0  0  0  0  0  0  0
   -1.6281    0.6632   -0.1679 C   0  0  0  0  0  0  0  0  0  0  0  0
   -1.7936   -0.6496    0.1372 C   0  0  0  0  0  0  0  0  0  0  0  0
   -0.6312   -1.6416    0.1494 C   0  0  0  0  0  0  0  0  0  0  0  0
    0.6592   -0.9453    0.3796 C   0  0  0  0  0  0  0  0  0  0  0  0
   -2.9803   -1.0768    0.4290 N   0  0  0  0  0  0  0  0  0  0  0  0
   -4.0257   -0.3276    0.4490 C   0  0  0  0  0  0  0  0  0  0  0  0
   -3.2690    1.3314   -0.0293 S   0  0  0  0  0  0  0  0  0  0  0  0
   -5.4033   -0.4528    0.7104 N   0  0  0  0  0  0  0  0  0  0  0  0
    4.3501    1.3284   -0.6367 H   0  0  0  0  0  0  0  0  0  0  0  0
    4.8033    0.9972    1.1715 H   0  0  0  0  0  0  0  0  0  0  0  0
    3.0920   -0.7569    1.1975 H   0  0  0  0  0  0  0  0  0  0  0  0
    2.9096    0.1912   -1.7972 H   0  0  0  0  0  0  0  0  0  0  0  0
    2.7176   -1.4802   -1.2626 H   0  0  0  0  0  0  0  0  0  0  0  0
    1.3734    1.7205   -1.3640 H   0  0  0  0  0  0  0  0  0  0  0  0
    1.3216    1.4740    0.3884 H   0  0  0  0  0  0  0  0  0  0  0  0
   -0.6858    2.4734    0.1692 H   0  0  0  0  0  0  0  0  0  0  0  0
   -0.8621    2.0558   -1.5244 H   0  0  0  0  0  0  0  0  0  0  0  0
   -0.7668   -2.3644    0.9829 H   0  0  0  0  0  0  0  0  0  0  0  0
   -0.6057   -2.2075   -0.7833 H   0  0  0  0  0  0  0  0  0  0  0  0
    0.6644   -0.2819    1.2507 H   0  0  0  0  0  0  0  0  0  0  0  0
    1.4100   -1.7482    0.6229 H   0  0  0  0  0  0  0  0  0  0  0  0
   -6.0562   -0.5201   -0.1118 H   0  0  0  0  0  0  0  0  0  0  0  0
   -5.8415   -0.4846    1.6543 H   0  0  0  0  0  0  0  0  0  0  0  0
  1  2  2  0
  2  3  1  0
  3  4  1  0
  4  5  1  0
  5  6  1  0
  6  7  1  0
  7  8  2  0
  8  9  1  0
  9 10  1  0
  8 11  1  0
 11 12  2  0
 12 13  1  0
 12 14  1  0
 10  4  1  0
 13  7  1  0
  1 15  1  0
  1 16  1  0
  2 17  1  0
  3 18  1  0
  3 19  1  0
  5 20  1  0
  5 21  1  0
  6 22  1  0
  6 23  1  0
  9 24  1  0
  9 25  1  0
 10 26  1  0
 10 27  1  0
 14 28  1  0
 14 29  1  0
M  END
>  <Ligand ID>  (1) 
LIG0005634

>  <Ligand>  (1) 
Talipexole

>  <SMILES>  (1) 
C=CCN1CCc2c(CC1)nc(s2)N

>  <CID>  (1) 
5374.0

>  <ChEMBL ID>  (1) 
nan

>  <InChiKey>  (1) 
DHSSDEDRBUKTQY-UHFFFAOYSA-N

>  <InChi>  (1) 
InChI=1S/C10H15N3S/c1-2-5-13-6-3-8-9(4-7-13)14-10(11)12-8/h2H,1,3-7H2,(H2,11,12)

>  <IUPAC Name>  (1) 
6-prop-2-enyl-4,5,7,8-tetrahydro-[1,3]thiazolo[4,5-d]azepin-2-amine

$$$$
