
     RDKit          3D

 57 62  0  0  0  0  0  0  0  0999 V2000
    3.2157    3.0165    1.5075 C   0  0  0  0  0  0  0  0  0  0  0  0
    3.3098    2.3142    0.3357 O   0  0  0  0  0  0  0  0  0  0  0  0
    2.9181    0.9556    0.4563 C   0  0  1  0  0  0  0  0  0  0  0  0
    1.9365    0.7121   -0.6243 C   0  0  2  0  0  0  0  0  0  0  0  0
    0.6853    1.5522   -0.6331 C   0  0  0  0  0  0  0  0  0  0  0  0
   -0.4964    0.6642   -1.0018 C   0  0  0  0  0  0  0  0  0  0  0  0
   -0.1031    0.1032   -2.3184 C   0  0  0  0  0  0  0  0  0  0  0  0
    1.1117   -0.4828   -2.3315 C   0  0  0  0  0  0  0  0  0  0  0  0
    1.6171   -0.7738   -0.8919 C   0  0  1  0  0  0  0  0  0  0  0  0
    2.7646   -1.4936   -1.0841 O   0  0  0  0  0  0  0  0  0  0  0  0
    2.5357   -2.8457   -1.3306 C   0  0  0  0  0  0  0  0  0  0  0  0
    0.5087   -1.3649   -0.2816 C   0  0  2  0  0  0  0  0  0  0  0  0
   -0.4622   -0.3025    0.1060 C   0  0  0  0  0  0  0  0  0  0  0  0
   -0.4808    0.2187    1.4695 C   0  0  0  0  0  0  0  0  0  0  0  0
   -1.6555    1.1666    1.5182 C   0  0  0  0  0  0  0  0  0  0  0  0
   -1.6808    2.0872    0.3946 N   0  0  0  0  0  0  0  0  0  0  0  0
   -1.8120    1.3006   -0.8702 C   0  0  0  0  0  0  0  0  0  0  0  0
   -3.0452    0.4646   -0.7966 C   0  0  0  0  0  0  0  0  0  0  0  0
   -2.8574   -0.8714   -0.1655 C   0  0  0  0  0  0  0  0  0  0  0  0
   -1.6066   -1.2198    0.1506 C   0  0  0  0  0  0  0  0  0  0  0  0
   -1.1558   -2.4050    0.6703 C   0  0  0  0  0  0  0  0  0  0  0  0
    0.2247   -2.2330    0.7794 O   0  0  0  0  0  0  0  0  0  0  0  0
   -2.1427   -3.3466    0.9011 C   0  0  0  0  0  0  0  0  0  0  0  0
   -1.7445   -4.5549    1.4285 O   0  0  0  0  0  0  0  0  0  0  0  0
   -3.4942   -3.0588    0.6005 C   0  0  0  0  0  0  0  0  0  0  0  0
   -3.8469   -1.8006    0.0580 C   0  0  0  0  0  0  0  0  0  0  0  0
   -2.7815    2.9856    0.5731 C   0  0  0  0  0  0  0  0  0  0  0  0
    4.1985    0.1343    0.2363 C   0  0  0  0  0  0  0  0  0  0  0  0
    3.5263    4.0986    1.4173 H   0  0  0  0  0  0  0  0  0  0  0  0
    2.1365    3.0768    1.7818 H   0  0  0  0  0  0  0  0  0  0  0  0
    3.7033    2.5463    2.3834 H   0  0  0  0  0  0  0  0  0  0  0  0
    2.6293    0.7969    1.4820 H   0  0  0  0  0  0  0  0  0  0  0  0
    2.5310    1.0952   -1.5192 H   0  0  0  0  0  0  0  0  0  0  0  0
    0.6665    2.3427   -1.4138 H   0  0  0  0  0  0  0  0  0  0  0  0
    0.5080    2.1083    0.3074 H   0  0  0  0  0  0  0  0  0  0  0  0
   -0.7142    0.1451   -3.2060 H   0  0  0  0  0  0  0  0  0  0  0  0
    1.6761   -0.7266   -3.1884 H   0  0  0  0  0  0  0  0  0  0  0  0
    2.0025   -3.3405   -0.4924 H   0  0  0  0  0  0  0  0  0  0  0  0
    2.0107   -2.9550   -2.2998 H   0  0  0  0  0  0  0  0  0  0  0  0
    3.5286   -3.3344   -1.4304 H   0  0  0  0  0  0  0  0  0  0  0  0
    0.0241   -1.9851   -1.1095 H   0  0  0  0  0  0  0  0  0  0  0  0
    0.3477    0.8035    1.8646 H   0  0  0  0  0  0  0  0  0  0  0  0
   -0.6370   -0.6026    2.1981 H   0  0  0  0  0  0  0  0  0  0  0  0
   -1.5429    1.8321    2.4104 H   0  0  0  0  0  0  0  0  0  0  0  0
   -2.6333    0.6580    1.6929 H   0  0  0  0  0  0  0  0  0  0  0  0
   -1.9546    2.0713   -1.6512 H   0  0  0  0  0  0  0  0  0  0  0  0
   -3.6032    0.3927   -1.7579 H   0  0  0  0  0  0  0  0  0  0  0  0
   -3.7543    1.0078   -0.1066 H   0  0  0  0  0  0  0  0  0  0  0  0
   -1.5823   -5.3015    0.7365 H   0  0  0  0  0  0  0  0  0  0  0  0
   -4.2511   -3.8059    0.7883 H   0  0  0  0  0  0  0  0  0  0  0  0
   -4.8662   -1.5553   -0.1827 H   0  0  0  0  0  0  0  0  0  0  0  0
   -3.2754    3.2115   -0.3768 H   0  0  0  0  0  0  0  0  0  0  0  0
   -3.4652    2.6353    1.3768 H   0  0  0  0  0  0  0  0  0  0  0  0
   -2.3546    3.9616    0.9479 H   0  0  0  0  0  0  0  0  0  0  0  0
    4.4645    0.0528   -0.8360 H   0  0  0  0  0  0  0  0  0  0  0  0
    4.1466   -0.8668    0.6585 H   0  0  0  0  0  0  0  0  0  0  0  0
    5.0717    0.7149    0.6689 H   0  0  0  0  0  0  0  0  0  0  0  0
  1  2  1  0
  2  3  1  0
  3  4  1  0
  4  5  1  0
  5  6  1  0
  6  7  1  0
  7  8  2  0
  8  9  1  0
  9 10  1  6
 10 11  1  0
  9 12  1  0
 12 13  1  0
 13 14  1  0
 14 15  1  0
 15 16  1  0
 16 17  1  0
 17 18  1  0
 18 19  1  0
 19 20  1  0
 20 21  2  0
 21 22  1  0
 21 23  1  0
 23 24  1  0
 23 25  2  0
 25 26  1  0
 16 27  1  0
  3 28  1  0
  9  4  1  0
 22 12  1  0
 17  6  1  0
 26 19  2  0
 13  6  1  0
 20 13  1  0
  1 29  1  0
  1 30  1  0
  1 31  1  0
  3 32  1  1
  4 33  1  6
  5 34  1  0
  5 35  1  0
  7 36  1  0
  8 37  1  0
 11 38  1  0
 11 39  1  0
 11 40  1  0
 12 41  1  6
 14 42  1  0
 14 43  1  0
 15 44  1  0
 15 45  1  0
 17 46  1  0
 18 47  1  0
 18 48  1  0
 24 49  1  0
 25 50  1  0
 26 51  1  0
 27 52  1  0
 27 53  1  0
 27 54  1  0
 28 55  1  0
 28 56  1  0
 28 57  1  0
M  END
>  <Ligand ID>  (1) 
LIG0002193

>  <Ligand>  (1) 
CHEMBL1169583

>  <SMILES>  (1) 
CO[C@@H]([C@@H]1CC23C=C[C@]1(OC)[C@@H]1C43CCN(C2Cc2c4c(O1)c(O)cc2)C)C

>  <CID>  (1) 
49799967.0

>  <ChEMBL ID>  (1) 
nan

>  <InChiKey>  (1) 
DRJFACWZQYBMLO-LYSZIEQMSA-N

>  <InChi>  (1) 
InChI=1S/C23H29NO4/c1-13(26-3)15-12-21-7-8-23(15,27-4)20-22(21)9-10-24(2)17(21)11-14-5-6-16(25)19(28-20)18(14)22/h5-8,13,15,17,20,25H,9-12H2,1-4H3/t13-,15+,17?,20+,21?,22?,23-/m1/s1

>  <IUPAC Name>  (1) 
(14S,15R,19S)-15-methoxy-19-[(1R)-1-methoxyethyl]-5-methyl-13-oxa-5-azahexacyclo[13.2.2.12,8.01,6.02,14.012,20]icosa-8(20),9,11,16-tetraen-11-ol

$$$$
