
     RDKit          3D

 64 67  0  0  0  0  0  0  0  0999 V2000
   -9.2945    0.2923    0.8936 C   0  0  0  0  0  0  0  0  0  0  0  0
   -7.7908    0.4555    0.9537 C   0  0  2  0  0  0  0  0  0  0  0  0
   -7.4022    1.6642    1.6368 N   0  0  0  0  0  0  0  0  0  0  0  0
   -5.9800    1.6841    1.8067 C   0  0  0  0  0  0  0  0  0  0  0  0
   -5.2803    0.5718    1.0649 C   0  0  0  0  0  0  0  0  0  0  0  0
   -5.7443    0.4049   -0.2749 N   0  0  0  0  0  0  0  0  0  0  0  0
   -7.1823    0.5006   -0.4323 C   0  0  0  0  0  0  0  0  0  0  0  0
   -5.3422   -0.9058   -0.7456 C   0  0  0  0  0  0  0  0  0  0  0  0
   -3.8956   -1.1273   -0.7620 C   0  0  0  0  0  0  0  0  0  0  0  0
   -3.1530   -1.6438    0.2678 C   0  0  0  0  0  0  0  0  0  0  0  0
   -1.7903   -1.8312    0.2001 C   0  0  0  0  0  0  0  0  0  0  0  0
   -1.0947   -1.4925   -0.9522 C   0  0  0  0  0  0  0  0  0  0  0  0
   -1.8159   -0.9706   -2.0044 C   0  0  0  0  0  0  0  0  0  0  0  0
   -3.1969   -0.7869   -1.9200 C   0  0  0  0  0  0  0  0  0  0  0  0
    0.3648   -1.7117   -0.9770 C   0  0  0  0  0  0  0  0  0  0  0  0
    1.0225   -0.4735   -0.4796 C   0  0  0  0  0  0  0  0  0  0  0  0
    0.3797    0.5459   -0.1182 O   0  0  0  0  0  0  0  0  0  0  0  0
    2.4428   -0.4284   -0.4049 N   0  0  0  0  0  0  0  0  0  0  0  0
    3.1006    0.7712    0.0773 C   0  0  0  0  0  0  0  0  0  0  0  0
    4.4973    0.8422   -0.5149 C   0  0  0  0  0  0  0  0  0  0  0  0
    5.2884   -0.3950   -0.2723 C   0  0  0  0  0  0  0  0  0  0  0  0
    4.4420   -1.5739    0.1362 C   0  0  0  0  0  0  0  0  0  0  0  0
    3.2471   -1.5776   -0.8082 C   0  0  0  0  0  0  0  0  0  0  0  0
    6.3531   -0.1371    0.6431 N   0  0  0  0  0  0  0  0  0  0  0  0
    7.4062    0.7753    0.4038 C   0  0  0  0  0  0  0  0  0  0  0  0
    7.5122    1.5001   -0.7431 C   0  0  0  0  0  0  0  0  0  0  0  0
    8.5668    2.3926   -0.9391 C   0  0  0  0  0  0  0  0  0  0  0  0
    9.5452    2.5839    0.0089 C   0  0  0  0  0  0  0  0  0  0  0  0
    9.4401    1.8492    1.1746 C   0  0  0  0  0  0  0  0  0  0  0  0
    8.3920    0.9636    1.3668 C   0  0  0  0  0  0  0  0  0  0  0  0
   10.3412    1.9504    2.1812 F   0  0  0  0  0  0  0  0  0  0  0  0
   -9.8152    1.1682    0.4674 H   0  0  0  0  0  0  0  0  0  0  0  0
   -9.6438   -0.0263    1.8793 H   0  0  0  0  0  0  0  0  0  0  0  0
   -9.4650   -0.5791    0.1974 H   0  0  0  0  0  0  0  0  0  0  0  0
   -7.3998   -0.4215    1.5025 H   0  0  0  0  0  0  0  0  0  0  0  0
   -7.6679    2.4817    1.0417 H   0  0  0  0  0  0  0  0  0  0  0  0
   -5.5263    2.6695    1.5269 H   0  0  0  0  0  0  0  0  0  0  0  0
   -5.7563    1.5493    2.8852 H   0  0  0  0  0  0  0  0  0  0  0  0
   -5.3737   -0.3333    1.7003 H   0  0  0  0  0  0  0  0  0  0  0  0
   -4.2006    0.8282    1.0313 H   0  0  0  0  0  0  0  0  0  0  0  0
   -7.5644   -0.3020   -1.0965 H   0  0  0  0  0  0  0  0  0  0  0  0
   -7.3667    1.4843   -0.9149 H   0  0  0  0  0  0  0  0  0  0  0  0
   -5.8887   -1.6668   -0.1241 H   0  0  0  0  0  0  0  0  0  0  0  0
   -5.7632   -1.0455   -1.7816 H   0  0  0  0  0  0  0  0  0  0  0  0
   -3.6594   -1.9202    1.1806 H   0  0  0  0  0  0  0  0  0  0  0  0
   -1.2423   -2.2496    1.0552 H   0  0  0  0  0  0  0  0  0  0  0  0
   -1.2777   -0.7102   -2.8914 H   0  0  0  0  0  0  0  0  0  0  0  0
   -3.7521   -0.3695   -2.7704 H   0  0  0  0  0  0  0  0  0  0  0  0
    0.7361   -2.0080   -1.9766 H   0  0  0  0  0  0  0  0  0  0  0  0
    0.5976   -2.5750   -0.3013 H   0  0  0  0  0  0  0  0  0  0  0  0
    3.1551    0.8281    1.1643 H   0  0  0  0  0  0  0  0  0  0  0  0
    2.5362    1.6514   -0.3346 H   0  0  0  0  0  0  0  0  0  0  0  0
    4.9884    1.6948   -0.0048 H   0  0  0  0  0  0  0  0  0  0  0  0
    4.4324    1.1283   -1.5991 H   0  0  0  0  0  0  0  0  0  0  0  0
    5.7444   -0.6845   -1.2642 H   0  0  0  0  0  0  0  0  0  0  0  0
    4.9806   -2.5195    0.1307 H   0  0  0  0  0  0  0  0  0  0  0  0
    4.0333   -1.3278    1.1376 H   0  0  0  0  0  0  0  0  0  0  0  0
    3.6071   -1.3828   -1.8450 H   0  0  0  0  0  0  0  0  0  0  0  0
    2.6874   -2.5094   -0.8057 H   0  0  0  0  0  0  0  0  0  0  0  0
    6.3359   -0.6754    1.5583 H   0  0  0  0  0  0  0  0  0  0  0  0
    6.8070    1.4196   -1.5329 H   0  0  0  0  0  0  0  0  0  0  0  0
    8.6484    2.9689   -1.8542 H   0  0  0  0  0  0  0  0  0  0  0  0
   10.3703    3.2618   -0.1083 H   0  0  0  0  0  0  0  0  0  0  0  0
    8.3237    0.3985    2.2802 H   0  0  0  0  0  0  0  0  0  0  0  0
  1  2  1  0
  2  3  1  0
  3  4  1  0
  4  5  1  0
  5  6  1  0
  6  7  1  0
  6  8  1  0
  8  9  1  0
  9 10  2  0
 10 11  1  0
 11 12  2  0
 12 13  1  0
 13 14  2  0
 12 15  1  0
 15 16  1  0
 16 17  2  0
 16 18  1  0
 18 19  1  0
 19 20  1  0
 20 21  1  0
 21 22  1  0
 22 23  1  0
 21 24  1  0
 24 25  1  0
 25 26  2  0
 26 27  1  0
 27 28  2  0
 28 29  1  0
 29 30  2  0
 29 31  1  0
  7  2  1  0
 14  9  1  0
 23 18  1  0
 30 25  1  0
  1 32  1  0
  1 33  1  0
  1 34  1  0
  2 35  1  1
  3 36  1  0
  4 37  1  0
  4 38  1  0
  5 39  1  0
  5 40  1  0
  7 41  1  0
  7 42  1  0
  8 43  1  0
  8 44  1  0
 10 45  1  0
 11 46  1  0
 13 47  1  0
 14 48  1  0
 15 49  1  0
 15 50  1  0
 19 51  1  0
 19 52  1  0
 20 53  1  0
 20 54  1  0
 21 55  1  0
 22 56  1  0
 22 57  1  0
 23 58  1  0
 23 59  1  0
 24 60  1  0
 26 61  1  0
 27 62  1  0
 28 63  1  0
 30 64  1  0
M  END
>  <Ligand ID>  (1) 
LIG0005540

>  <Ligand>  (1) 
camicinal

>  <SMILES>  (1) 
C[C@@H]1NCCN(C1)Cc1ccc(cc1)CC(=O)N1CCC(CC1)Nc1cccc(c1)F

>  <CID>  (1) 
15984937.0

>  <ChEMBL ID>  (1) 
nan

>  <InChiKey>  (1) 
RZKDEGZIFSJVNA-IBGZPJMESA-N

>  <InChi>  (1) 
InChI=1S/C25H33FN4O/c1-19-17-29(14-11-27-19)18-21-7-5-20(6-8-21)15-25(31)30-12-9-23(10-13-30)28-24-4-2-3-22(26)16-24/h2-8,16,19,23,27-28H,9-15,17-18H2,1H3/t19-/m0/s1

>  <IUPAC Name>  (1) 
1-[4-(3-fluoroanilino)piperidin-1-yl]-2-[4-[[(3S)-3-methylpiperazin-1-yl]methyl]phenyl]ethanone

$$$$
