
     RDKit          3D

 44 46  0  0  0  0  0  0  0  0999 V2000
   -6.4303   -1.1934    0.6781 C   0  0  0  0  0  0  0  0  0  0  0  0
   -5.4101   -0.2533    1.0031 N   0  0  0  0  0  0  0  0  0  0  0  0
   -4.2890   -0.2275    0.0847 C   0  0  0  0  0  0  0  0  0  0  0  0
   -3.3399    0.8295    0.5921 C   0  0  0  0  0  0  0  0  0  0  0  0
   -2.1791    0.9990   -0.2063 N   0  0  0  0  0  0  0  0  0  0  0  0
   -2.3548    1.5623   -1.5424 C   0  0  0  0  0  0  0  0  0  0  0  0
   -1.5709    0.7924   -2.5717 C   0  0  0  0  0  0  0  0  0  0  0  0
   -0.1231    0.6701   -2.2494 C   0  0  0  0  0  0  0  0  0  0  0  0
    0.1276    0.5133   -0.7916 C   0  0  0  0  0  0  0  0  0  0  0  0
   -0.8476    0.6723    0.1646 C   0  0  0  0  0  0  0  0  0  0  0  0
   -0.5666    0.5224    1.4977 C   0  0  0  0  0  0  0  0  0  0  0  0
    0.7107    0.2079    1.8846 C   0  0  0  0  0  0  0  0  0  0  0  0
    1.7568    0.0306    0.9544 C   0  0  0  0  0  0  0  0  0  0  0  0
    1.4033    0.1982   -0.3961 C   0  0  0  0  0  0  0  0  0  0  0  0
    2.9665   -0.2658    1.3292 N   0  0  0  0  0  0  0  0  0  0  0  0
    4.0613   -0.5371    1.6076 C   0  0  0  0  0  0  0  0  0  0  0  0
    5.1047   -0.8591    0.5952 C   0  0  0  0  0  0  0  0  0  0  0  0
    5.2568   -0.3872   -0.6594 C   0  0  0  0  0  0  0  0  0  0  0  0
    6.2673   -0.8060   -1.4185 C   0  0  0  0  0  0  0  0  0  0  0  0
    7.1268   -1.7429   -0.8256 C   0  0  0  0  0  0  0  0  0  0  0  0
    6.4438   -2.0098    0.8604 S   0  0  0  0  0  0  0  0  0  0  0  0
    4.5486   -0.5960    2.9622 N   0  0  0  0  0  0  0  0  0  0  0  0
   -6.4099   -2.0147    1.4242 H   0  0  0  0  0  0  0  0  0  0  0  0
   -7.4274   -0.7115    0.7747 H   0  0  0  0  0  0  0  0  0  0  0  0
   -6.2938   -1.6640   -0.3176 H   0  0  0  0  0  0  0  0  0  0  0  0
   -5.1163   -0.3810    1.9926 H   0  0  0  0  0  0  0  0  0  0  0  0
   -3.8559   -1.2417    0.1215 H   0  0  0  0  0  0  0  0  0  0  0  0
   -4.6315    0.0613   -0.9226 H   0  0  0  0  0  0  0  0  0  0  0  0
   -3.0912    0.5950    1.6288 H   0  0  0  0  0  0  0  0  0  0  0  0
   -3.8784    1.8016    0.6061 H   0  0  0  0  0  0  0  0  0  0  0  0
   -3.4084    1.5734   -1.8640 H   0  0  0  0  0  0  0  0  0  0  0  0
   -2.0016    2.6120   -1.5251 H   0  0  0  0  0  0  0  0  0  0  0  0
   -2.0107   -0.2022   -2.7820 H   0  0  0  0  0  0  0  0  0  0  0  0
   -1.6469    1.3696   -3.5308 H   0  0  0  0  0  0  0  0  0  0  0  0
    0.3260   -0.2103   -2.7476 H   0  0  0  0  0  0  0  0  0  0  0  0
    0.4722    1.5447   -2.6258 H   0  0  0  0  0  0  0  0  0  0  0  0
   -1.3028    0.6432    2.2764 H   0  0  0  0  0  0  0  0  0  0  0  0
    0.9753    0.0781    2.9429 H   0  0  0  0  0  0  0  0  0  0  0  0
    2.1647    0.0733   -1.1417 H   0  0  0  0  0  0  0  0  0  0  0  0
    4.5180    0.3678   -1.0549 H   0  0  0  0  0  0  0  0  0  0  0  0
    6.4825   -0.4873   -2.4506 H   0  0  0  0  0  0  0  0  0  0  0  0
    8.0361   -2.2565   -1.2142 H   0  0  0  0  0  0  0  0  0  0  0  0
    4.5482    0.2676    3.5788 H   0  0  0  0  0  0  0  0  0  0  0  0
    4.8890   -1.5138    3.2781 H   0  0  0  0  0  0  0  0  0  0  0  0
  1  2  1  0
  2  3  1  0
  3  4  1  0
  4  5  1  0
  5  6  1  0
  6  7  1  0
  7  8  1  0
  8  9  1  0
  9 10  2  0
 10 11  1  0
 11 12  2  0
 12 13  1  0
 13 14  2  0
 13 15  1  0
 15 16  2  3
 16 17  1  0
 17 18  2  0
 18 19  1  0
 19 20  2  0
 20 21  1  0
 16 22  1  0
 10  5  1  0
 21 17  1  0
 14  9  1  0
  1 23  1  0
  1 24  1  0
  1 25  1  0
  2 26  1  0
  3 27  1  0
  3 28  1  0
  4 29  1  0
  4 30  1  0
  6 31  1  0
  6 32  1  0
  7 33  1  0
  7 34  1  0
  8 35  1  0
  8 36  1  0
 11 37  1  0
 12 38  1  0
 14 39  1  0
 18 40  1  0
 19 41  1  0
 20 42  1  0
 22 43  1  0
 22 44  1  0
M  END
>  <Ligand ID>  (1) 
LIG0001991

>  <Ligand>  (1) 
CHEMBL2165820

>  <SMILES>  (1) 
CNCCN1CCCc2c1ccc(c2)N=C(c1cccs1)N

>  <CID>  (1) 
25015647.0

>  <ChEMBL ID>  (1) 
nan

>  <InChiKey>  (1) 
OGZIQVTYHMBLMX-UHFFFAOYSA-N

>  <InChi>  (1) 
InChI=1S/C17H22N4S/c1-19-8-10-21-9-2-4-13-12-14(6-7-15(13)21)20-17(18)16-5-3-11-22-16/h3,5-7,11-12,19H,2,4,8-10H2,1H3,(H2,18,20)

>  <IUPAC Name>  (1) 
N'-[1-[2-(methylamino)ethyl]-3,4-dihydro-2H-quinolin-6-yl]thiophene-2-carboximidamide

$$$$
