
     RDKit          3D

 32 34  0  0  0  0  0  0  0  0999 V2000
   -4.0656    1.1500    0.0194 C   0  0  0  0  0  0  0  0  0  0  0  0
   -2.7022    0.6134    0.3133 C   0  0  1  0  0  0  0  0  0  0  0  0
   -2.7550   -0.7294    0.8101 N   0  0  0  0  0  0  0  0  0  0  0  0
   -1.5476   -1.4858    0.6400 C   0  0  0  0  0  0  0  0  0  0  0  0
   -0.3103   -0.6524    0.5871 C   0  0  2  0  0  0  0  0  0  0  0  0
   -0.4463    0.4531   -0.3494 N   0  0  0  0  0  0  0  0  0  0  0  0
   -1.7685    0.6765   -0.9016 C   0  0  0  0  0  0  0  0  0  0  0  0
    0.6652    1.2500   -0.6854 C   0  0  0  0  0  0  0  0  0  0  0  0
    0.4617    2.4310   -1.0491 O   0  0  0  0  0  0  0  0  0  0  0  0
    1.9904    0.6470   -0.5882 C   0  0  0  0  0  0  0  0  0  0  0  0
    2.0454   -0.6672   -0.1710 C   0  0  0  0  0  0  0  0  0  0  0  0
    0.8646   -1.4772    0.1741 C   0  0  0  0  0  0  0  0  0  0  0  0
    3.3248   -1.2203   -0.0864 C   0  0  0  0  0  0  0  0  0  0  0  0
    4.4348   -0.4690   -0.4076 C   0  0  0  0  0  0  0  0  0  0  0  0
    4.3285    0.8546   -0.8240 C   0  0  0  0  0  0  0  0  0  0  0  0
    3.0829    1.4010   -0.9090 C   0  0  0  0  0  0  0  0  0  0  0  0
   -4.4039    0.8720   -0.9919 H   0  0  0  0  0  0  0  0  0  0  0  0
   -4.1022    2.2702    0.0841 H   0  0  0  0  0  0  0  0  0  0  0  0
   -4.7805    0.7323    0.7546 H   0  0  0  0  0  0  0  0  0  0  0  0
   -2.2360    1.2647    1.1052 H   0  0  0  0  0  0  0  0  0  0  0  0
   -3.5908   -1.2608    0.4849 H   0  0  0  0  0  0  0  0  0  0  0  0
   -1.6399   -2.1210   -0.2786 H   0  0  0  0  0  0  0  0  0  0  0  0
   -1.4351   -2.1728    1.5226 H   0  0  0  0  0  0  0  0  0  0  0  0
   -0.1134   -0.2833    1.6151 H   0  0  0  0  0  0  0  0  0  0  0  0
   -1.8766    1.6469   -1.3890 H   0  0  0  0  0  0  0  0  0  0  0  0
   -2.0742   -0.1930   -1.5435 H   0  0  0  0  0  0  0  0  0  0  0  0
    0.5696   -2.0907   -0.7250 H   0  0  0  0  0  0  0  0  0  0  0  0
    1.1499   -2.1978    0.9726 H   0  0  0  0  0  0  0  0  0  0  0  0
    3.4020   -2.2486    0.2375 H   0  0  0  0  0  0  0  0  0  0  0  0
    5.4233   -0.8709   -0.3503 H   0  0  0  0  0  0  0  0  0  0  0  0
    5.1724    1.4524   -1.0767 H   0  0  0  0  0  0  0  0  0  0  0  0
    2.9327    2.4253   -1.2263 H   0  0  0  0  0  0  0  0  0  0  0  0
  1  2  1  0
  2  3  1  0
  3  4  1  0
  4  5  1  0
  5  6  1  0
  6  7  1  0
  6  8  1  0
  8  9  2  0
  8 10  1  0
 10 11  2  0
 11 12  1  0
 11 13  1  0
 13 14  2  0
 14 15  1  0
 15 16  2  0
  7  2  1  0
 16 10  1  0
 12  5  1  0
  1 17  1  0
  1 18  1  0
  1 19  1  0
  2 20  1  1
  3 21  1  0
  4 22  1  0
  4 23  1  0
  5 24  1  1
  7 25  1  0
  7 26  1  0
 12 27  1  0
 12 28  1  0
 13 29  1  0
 14 30  1  0
 15 31  1  0
 16 32  1  0
M  END
>  <Ligand ID>  (1) 
LIG0002176

>  <Ligand>  (1) 
SCHEMBL3555280

>  <SMILES>  (1) 
C[C@H]1NC[C@@H]2N(C1)C(=O)c1c(C2)cccc1

>  <CID>  (1) 
58911681.0

>  <ChEMBL ID>  (1) 
nan

>  <InChiKey>  (1) 
AELIJLHYRIRWPT-MWLCHTKSSA-N

>  <InChi>  (1) 
InChI=1S/C13H16N2O/c1-9-8-15-11(7-14-9)6-10-4-2-3-5-12(10)13(15)16/h2-5,9,11,14H,6-8H2,1H3/t9-,11-/m1/s1

>  <IUPAC Name>  (1) 
(3R,11aR)-3-methyl-1,2,3,4,11,11a-hexahydropyrazino[1,2-b]isoquinolin-6-one

$$$$
