
     RDKit          3D

138143  0  0  0  0  0  0  0  0999 V2000
   -3.2329   -5.8298    2.1798 N   0  0  0  0  0  0  0  0  0  0  0  0
   -2.3380   -5.2510    3.1351 C   0  0  0  0  0  0  0  0  0  0  0  0
   -1.9353   -4.0280    2.9452 N   0  0  0  0  0  0  0  0  0  0  0  0
   -2.3503   -3.2386    1.8223 C   0  0  0  0  0  0  0  0  0  0  0  0
   -1.3320   -2.1135    1.6112 C   0  0  0  0  0  0  0  0  0  0  0  0
   -1.7170   -1.2540    0.4320 C   0  0  0  0  0  0  0  0  0  0  0  0
   -1.7168   -1.9033   -0.8896 C   0  0  2  0  0  0  0  0  0  0  0  0
   -0.4934   -2.4026   -1.4168 N   0  0  0  0  0  0  0  0  0  0  0  0
   -0.0911   -3.7791   -1.5414 C   0  0  0  0  0  0  0  0  0  0  0  0
   -0.8864   -4.5764   -1.0302 O   0  0  0  0  0  0  0  0  0  0  0  0
    1.1079   -4.2507   -2.1864 C   0  0  2  0  0  0  0  0  0  0  0  0
    0.8945   -5.7211   -2.5454 C   0  0  0  0  0  0  0  0  0  0  0  0
    2.2677   -6.3072   -2.5310 C   0  0  0  0  0  0  0  0  0  0  0  0
    3.2117   -5.0893   -2.4403 C   0  0  0  0  0  0  0  0  0  0  0  0
    2.4062   -4.2432   -1.5979 N   0  0  0  0  0  0  0  0  0  0  0  0
    2.8197   -3.5375   -0.4375 C   0  0  0  0  0  0  0  0  0  0  0  0
    1.8537   -2.8761    0.0526 O   0  0  0  0  0  0  0  0  0  0  0  0
    4.1011   -3.4729    0.2128 C   0  0  1  0  0  0  0  0  0  0  0  0
    4.9641   -4.6477    0.3532 C   0  0  0  0  0  0  0  0  0  0  0  0
    6.2117   -4.4698   -0.4908 C   0  0  0  0  0  0  0  0  0  0  0  0
    5.9319   -3.1250   -1.1956 C   0  0  0  0  0  0  0  0  0  0  0  0
    5.0251   -2.4532   -0.3575 N   0  0  0  0  0  0  0  0  0  0  0  0
    4.8372   -1.1218    0.0081 C   0  0  0  0  0  0  0  0  0  0  0  0
    3.8986   -0.9074    0.7955 O   0  0  0  0  0  0  0  0  0  0  0  0
    5.6283    0.0713   -0.4365 C   0  0  2  0  0  0  0  0  0  0  0  0
    7.0201    0.1282    0.0470 C   0  0  0  0  0  0  0  0  0  0  0  0
    7.1692    0.1595    1.5118 C   0  0  0  0  0  0  0  0  0  0  0  0
    7.2331    1.3505    2.2096 C   0  0  0  0  0  0  0  0  0  0  0  0
    7.3724    1.4278    3.5770 C   0  0  0  0  0  0  0  0  0  0  0  0
    7.4513    0.2287    4.2774 C   0  0  0  0  0  0  0  0  0  0  0  0
    7.3889   -0.9723    3.5945 C   0  0  0  0  0  0  0  0  0  0  0  0
    7.2493   -1.0329    2.2243 C   0  0  0  0  0  0  0  0  0  0  0  0
    4.9010    1.2153    0.1833 N   0  0  0  0  0  0  0  0  0  0  0  0
    4.0178    2.0135   -0.6006 C   0  0  0  0  0  0  0  0  0  0  0  0
    4.0083    1.7483   -1.8142 O   0  0  0  0  0  0  0  0  0  0  0  0
    3.1583    3.0813   -0.0591 C   0  0  1  0  0  0  0  0  0  0  0  0
    2.2489    3.5860   -1.0664 N   0  0  0  0  0  0  0  0  0  0  0  0
    1.1224    4.4097   -0.8090 C   0  0  0  0  0  0  0  0  0  0  0  0
    0.9342    4.7239    0.3691 O   0  0  0  0  0  0  0  0  0  0  0  0
    0.2419    4.8247   -1.9473 C   0  0  1  0  0  0  0  0  0  0  0  0
   -1.1353    4.9733   -1.4634 N   0  0  0  0  0  0  0  0  0  0  0  0
   -1.9122    3.7996   -1.5359 C   0  0  0  0  0  0  0  0  0  0  0  0
   -1.3512    2.7840   -1.9971 O   0  0  0  0  0  0  0  0  0  0  0  0
   -3.3370    3.6052   -1.1253 C   0  0  0  0  0  0  0  0  0  0  0  0
   -3.6048    2.1546   -1.3427 N   0  0  0  0  0  0  0  0  0  0  0  0
   -4.3462    1.6850   -2.4595 C   0  0  0  0  0  0  0  0  0  0  0  0
   -4.8369    2.5614   -3.1794 O   0  0  0  0  0  0  0  0  0  0  0  0
   -4.4753    0.2192   -2.6775 C   0  0  1  0  0  0  0  0  0  0  0  0
   -3.7784   -0.5365   -1.6420 N   0  0  0  0  0  0  0  0  0  0  0  0
   -2.4950   -1.1250   -1.8864 C   0  0  0  0  0  0  0  0  0  0  0  0
   -2.0625   -0.9335   -3.0369 O   0  0  0  0  0  0  0  0  0  0  0  0
   -5.8690   -0.2505   -2.9190 C   0  0  0  0  0  0  0  0  0  0  0  0
   -6.8334    0.0069   -1.8461 C   0  0  0  0  0  0  0  0  0  0  0  0
   -7.0423   -0.9508   -0.8758 C   0  0  0  0  0  0  0  0  0  0  0  0
   -7.9331   -0.8076    0.1637 C   0  0  0  0  0  0  0  0  0  0  0  0
   -8.6697    0.3782    0.2396 C   0  0  0  0  0  0  0  0  0  0  0  0
   -8.4906    1.3690   -0.7164 C   0  0  0  0  0  0  0  0  0  0  0  0
   -7.5828    1.1836   -1.7459 C   0  0  0  0  0  0  0  0  0  0  0  0
   -3.5589    4.0252    0.2767 C   0  0  0  0  0  0  0  0  0  0  0  0
   -2.7394    3.2765    1.3070 C   0  0  0  0  0  0  0  0  0  0  0  0
   -3.1158    3.8681    2.6316 C   0  0  0  0  0  0  0  0  0  0  0  0
   -2.4084    4.9291    3.1533 C   0  0  0  0  0  0  0  0  0  0  0  0
   -2.7260    5.5183    4.3747 C   0  0  0  0  0  0  0  0  0  0  0  0
   -3.8092    4.9851    5.0663 C   0  0  0  0  0  0  0  0  0  0  0  0
   -4.5404    3.9298    4.5839 C   0  0  0  0  0  0  0  0  0  0  0  0
   -4.1856    3.3808    3.3693 C   0  0  0  0  0  0  0  0  0  0  0  0
    0.6450    6.0895   -2.6159 C   0  0  0  0  0  0  0  0  0  0  0  0
   -0.3429    6.3608   -3.7209 C   0  0  0  0  0  0  0  0  0  0  0  0
   -0.1380    7.3383   -4.4982 O   0  0  0  0  0  0  0  0  0  0  0  0
   -1.4972    5.5332   -3.8964 N   0  0  0  0  0  0  0  0  0  0  0  0
    2.2922    2.4477    1.0823 C   0  0  0  0  0  0  0  0  0  0  0  0
   -1.9007   -5.9909    4.2645 N   0  0  0  0  0  0  0  0  0  0  0  0
   -4.2450   -5.5545    2.1096 H   0  0  0  0  0  0  0  0  0  0  0  0
   -2.9151   -6.5547    1.5071 H   0  0  0  0  0  0  0  0  0  0  0  0
   -2.5503   -3.8419    0.9461 H   0  0  0  0  0  0  0  0  0  0  0  0
   -3.3443   -2.7752    2.1205 H   0  0  0  0  0  0  0  0  0  0  0  0
   -1.3102   -1.5274    2.5412 H   0  0  0  0  0  0  0  0  0  0  0  0
   -0.3774   -2.6340    1.4317 H   0  0  0  0  0  0  0  0  0  0  0  0
   -2.7801   -0.9387    0.6596 H   0  0  0  0  0  0  0  0  0  0  0  0
   -1.1725   -0.2734    0.4536 H   0  0  0  0  0  0  0  0  0  0  0  0
   -2.3576   -2.8441   -0.7546 H   0  0  0  0  0  0  0  0  0  0  0  0
    0.2138   -1.7402   -1.7645 H   0  0  0  0  0  0  0  0  0  0  0  0
    1.2287   -3.6595   -3.1516 H   0  0  0  0  0  0  0  0  0  0  0  0
    0.2222   -6.1425   -1.7811 H   0  0  0  0  0  0  0  0  0  0  0  0
    0.3854   -5.8143   -3.5248 H   0  0  0  0  0  0  0  0  0  0  0  0
    2.4305   -6.8806   -3.4387 H   0  0  0  0  0  0  0  0  0  0  0  0
    2.3751   -6.8897   -1.5767 H   0  0  0  0  0  0  0  0  0  0  0  0
    4.1262   -5.4850   -2.0475 H   0  0  0  0  0  0  0  0  0  0  0  0
    3.2936   -4.6763   -3.4724 H   0  0  0  0  0  0  0  0  0  0  0  0
    3.8755   -3.1247    1.2890 H   0  0  0  0  0  0  0  0  0  0  0  0
    4.5010   -5.6485    0.2714 H   0  0  0  0  0  0  0  0  0  0  0  0
    5.3842   -4.6679    1.4208 H   0  0  0  0  0  0  0  0  0  0  0  0
    7.1445   -4.4045    0.0818 H   0  0  0  0  0  0  0  0  0  0  0  0
    6.3343   -5.2691   -1.2330 H   0  0  0  0  0  0  0  0  0  0  0  0
    5.5131   -3.3764   -2.2026 H   0  0  0  0  0  0  0  0  0  0  0  0
    6.8822   -2.6164   -1.4191 H   0  0  0  0  0  0  0  0  0  0  0  0
    5.5140    0.1985   -1.5160 H   0  0  0  0  0  0  0  0  0  0  0  0
    7.4672    1.1001   -0.3399 H   0  0  0  0  0  0  0  0  0  0  0  0
    7.6529   -0.6496   -0.3767 H   0  0  0  0  0  0  0  0  0  0  0  0
    7.1738    2.3227    1.6931 H   0  0  0  0  0  0  0  0  0  0  0  0
    7.4193    2.3674    4.1186 H   0  0  0  0  0  0  0  0  0  0  0  0
    7.5638    0.2137    5.3686 H   0  0  0  0  0  0  0  0  0  0  0  0
    7.4518   -1.8932    4.1523 H   0  0  0  0  0  0  0  0  0  0  0  0
    7.2028   -1.9908    1.7032 H   0  0  0  0  0  0  0  0  0  0  0  0
    4.9926    1.4782    1.1550 H   0  0  0  0  0  0  0  0  0  0  0  0
    3.6799    3.8676    0.4570 H   0  0  0  0  0  0  0  0  0  0  0  0
    2.4187    3.3413   -2.0406 H   0  0  0  0  0  0  0  0  0  0  0  0
    0.2660    3.9904   -2.6687 H   0  0  0  0  0  0  0  0  0  0  0  0
   -1.5612    5.8038   -1.0958 H   0  0  0  0  0  0  0  0  0  0  0  0
   -3.9193    4.2345   -1.8092 H   0  0  0  0  0  0  0  0  0  0  0  0
   -3.2670    1.4548   -0.6899 H   0  0  0  0  0  0  0  0  0  0  0  0
   -3.9330    0.0694   -3.6724 H   0  0  0  0  0  0  0  0  0  0  0  0
   -4.1606   -0.6866   -0.7153 H   0  0  0  0  0  0  0  0  0  0  0  0
   -5.9152   -1.3231   -3.2180 H   0  0  0  0  0  0  0  0  0  0  0  0
   -6.2324    0.3216   -3.8282 H   0  0  0  0  0  0  0  0  0  0  0  0
   -6.4840   -1.8954   -0.8981 H   0  0  0  0  0  0  0  0  0  0  0  0
   -8.0560   -1.6014    0.9010 H   0  0  0  0  0  0  0  0  0  0  0  0
   -9.3638    0.4681    1.0658 H   0  0  0  0  0  0  0  0  0  0  0  0
   -9.0882    2.2572   -0.5965 H   0  0  0  0  0  0  0  0  0  0  0  0
   -7.4609    1.9567   -2.4704 H   0  0  0  0  0  0  0  0  0  0  0  0
   -3.2043    5.0997    0.3314 H   0  0  0  0  0  0  0  0  0  0  0  0
   -4.6173    4.0580    0.5500 H   0  0  0  0  0  0  0  0  0  0  0  0
   -3.0649    2.2061    1.3645 H   0  0  0  0  0  0  0  0  0  0  0  0
   -1.6715    3.2893    1.1058 H   0  0  0  0  0  0  0  0  0  0  0  0
   -1.5843    5.3096    2.5914 H   0  0  0  0  0  0  0  0  0  0  0  0
   -2.1510    6.3628    4.7711 H   0  0  0  0  0  0  0  0  0  0  0  0
   -4.0405    5.4719    6.0277 H   0  0  0  0  0  0  0  0  0  0  0  0
   -5.3882    3.5521    5.1761 H   0  0  0  0  0  0  0  0  0  0  0  0
   -4.7502    2.5409    2.9618 H   0  0  0  0  0  0  0  0  0  0  0  0
    1.6262    5.9497   -3.1307 H   0  0  0  0  0  0  0  0  0  0  0  0
    0.6798    6.9556   -1.9121 H   0  0  0  0  0  0  0  0  0  0  0  0
   -2.3952    5.9561   -3.5148 H   0  0  0  0  0  0  0  0  0  0  0  0
   -1.4717    4.6014   -4.3545 H   0  0  0  0  0  0  0  0  0  0  0  0
    2.9994    1.7804    1.5990 H   0  0  0  0  0  0  0  0  0  0  0  0
    1.5045    1.8430    0.6477 H   0  0  0  0  0  0  0  0  0  0  0  0
    2.0310    3.2566    1.7464 H   0  0  0  0  0  0  0  0  0  0  0  0
   -2.2315   -5.6404    5.2031 H   0  0  0  0  0  0  0  0  0  0  0  0
   -1.2918   -6.8319    4.2114 H   0  0  0  0  0  0  0  0  0  0  0  0
  1  2  1  0
  2  3  2  3
  3  4  1  0
  4  5  1  0
  5  6  1  0
  6  7  1  0
  7  8  1  0
  8  9  1  0
  9 10  2  0
  9 11  1  0
 11 12  1  0
 12 13  1  0
 13 14  1  0
 14 15  1  0
 15 16  1  0
 16 17  2  0
 16 18  1  0
 18 19  1  0
 19 20  1  0
 20 21  1  0
 21 22  1  0
 22 23  1  0
 23 24  2  0
 23 25  1  0
 25 26  1  0
 26 27  1  0
 27 28  2  0
 28 29  1  0
 29 30  2  0
 30 31  1  0
 31 32  2  0
 25 33  1  0
 33 34  1  0
 34 35  2  0
 34 36  1  0
 36 37  1  0
 37 38  1  0
 38 39  2  0
 38 40  1  0
 40 41  1  0
 41 42  1  0
 42 43  2  0
 42 44  1  0
 44 45  1  0
 45 46  1  0
 46 47  2  0
 46 48  1  0
 48 49  1  0
 49 50  1  0
 50 51  2  0
 48 52  1  0
 52 53  1  0
 53 54  2  0
 54 55  1  0
 55 56  2  0
 56 57  1  0
 57 58  2  0
 44 59  1  0
 59 60  1  0
 60 61  1  0
 61 62  2  0
 62 63  1  0
 63 64  2  0
 64 65  1  0
 65 66  2  0
 40 67  1  0
 67 68  1  0
 68 69  2  0
 68 70  1  0
 36 71  1  0
  2 72  1  0
 50  7  1  0
 58 53  1  0
 66 61  1  0
 15 11  1  0
 22 18  1  0
 32 27  1  0
  1 73  1  0
  1 74  1  0
  4 75  1  0
  4 76  1  0
  5 77  1  0
  5 78  1  0
  6 79  1  0
  6 80  1  0
  7 81  1  1
  8 82  1  0
 11 83  1  6
 12 84  1  0
 12 85  1  0
 13 86  1  0
 13 87  1  0
 14 88  1  0
 14 89  1  0
 18 90  1  1
 19 91  1  0
 19 92  1  0
 20 93  1  0
 20 94  1  0
 21 95  1  0
 21 96  1  0
 25 97  1  6
 26 98  1  0
 26 99  1  0
 28100  1  0
 29101  1  0
 30102  1  0
 31103  1  0
 32104  1  0
 33105  1  0
 36106  1  1
 37107  1  0
 40108  1  6
 41109  1  0
 44110  1  0
 45111  1  0
 48112  1  6
 49113  1  0
 52114  1  0
 52115  1  0
 54116  1  0
 55117  1  0
 56118  1  0
 57119  1  0
 58120  1  0
 59121  1  0
 59122  1  0
 60123  1  0
 60124  1  0
 62125  1  0
 63126  1  0
 64127  1  0
 65128  1  0
 66129  1  0
 67130  1  0
 67131  1  0
 70132  1  0
 70133  1  0
 71134  1  0
 71135  1  0
 71136  1  0
 72137  1  0
 72138  1  0
M  END
>  <Ligand ID>  (1) 
LIG0005506

>  <Ligand>  (1) 
CHEMBL3577991

>  <SMILES>  (1) 
NC(=NCCC[C@@H]1NC(=O)[C@@H]2CCCN2C(=O)[C@H]2CCCN2C(=O)[C@H](Cc2ccccc2)NC(=O)[C@@H](NC(=O)[C@@H](NC(=O)C(NC(=O)[C@@H](NC1=O)Cc1ccccc1)CCc1ccccc1)CC(=O)N)C)N

>  <CID>  (1) 
122178162.0

>  <ChEMBL ID>  (1) 
nan

>  <InChiKey>  (1) 
BWTFBDOLYUCQEU-UZKRJQGBSA-N

>  <InChi>  (1) 
InChI=1S/C51H66N12O9/c1-31-43(65)61-39(29-34-18-9-4-10-19-34)49(71)63-27-13-22-41(63)50(72)62-26-12-21-40(62)48(70)58-35(20-11-25-55-51(53)54)44(66)59-37(28-33-16-7-3-8-17-33)47(69)57-36(24-23-32-14-5-2-6-15-32)45(67)60-38(30-42(52)64)46(68)56-31/h2-10,14-19,31,35-41H,11-13,20-30H2,1H3,(H2,52,64)(H,56,68)(H,57,69)(H,58,70)(H,59,66)(H,60,67)(H,61,65)(H4,53,54,55)/t31-,35-,36?,37-,38-,39-,40-,41+/m0/s1

>  <IUPAC Name>  (1) 
2-[(3R,9S,12S,15S,21S,24S,27S)-9,21-dibenzyl-24-[3-(diaminomethylideneamino)propyl]-12-methyl-2,8,11,14,17,20,23,26-octaoxo-18-(2-phenylethyl)-1,7,10,13,16,19,22,25-octazatricyclo[25.3.0.03,7]triacontan-15-yl]acetamide

$$$$
