
     RDKit          3D

 27 27  0  0  0  0  0  0  0  0999 V2000
    3.7030   -0.7367   -0.8474 C   0  0  0  0  0  0  0  0  0  0  0  0
    2.2718   -0.6192   -0.2573 C   0  0  0  0  0  0  0  0  0  0  0  0
    1.9469    0.8309   -0.0364 C   0  0  0  0  0  0  0  0  0  0  0  0
    0.6486    1.0982    0.5519 C   0  0  0  0  0  0  0  0  0  0  0  0
   -0.6476    0.7783    0.0105 C   0  0  0  0  0  0  0  0  0  0  0  0
   -1.1551   -0.5590   -0.2777 C   0  0  0  0  0  0  0  0  0  0  0  0
   -2.6051   -0.4524   -0.8376 C   0  0  0  0  0  0  0  0  0  0  0  0
   -3.3892   -0.0918    0.4024 C   0  0  0  0  0  0  0  0  0  0  0  0
   -2.5401   -0.5775    1.5300 C   0  0  0  0  0  0  0  0  0  0  0  0
   -2.7687   -0.3732    2.7496 O   0  0  0  0  0  0  0  0  0  0  0  0
   -1.5001   -1.2682    0.9285 O   0  0  0  0  0  0  0  0  0  0  0  0
    3.6655   -0.6011   -1.9394 H   0  0  0  0  0  0  0  0  0  0  0  0
    4.0147   -1.7705   -0.6387 H   0  0  0  0  0  0  0  0  0  0  0  0
    4.3811   -0.0545   -0.3329 H   0  0  0  0  0  0  0  0  0  0  0  0
    2.3303   -1.1353    0.7227 H   0  0  0  0  0  0  0  0  0  0  0  0
    1.6104   -1.1713   -0.9165 H   0  0  0  0  0  0  0  0  0  0  0  0
    2.2039    1.4517   -0.9366 H   0  0  0  0  0  0  0  0  0  0  0  0
    2.7695    1.1708    0.6828 H   0  0  0  0  0  0  0  0  0  0  0  0
    0.7000    0.7297    1.6491 H   0  0  0  0  0  0  0  0  0  0  0  0
    0.6344    2.2316    0.7769 H   0  0  0  0  0  0  0  0  0  0  0  0
   -0.8391    1.4090   -0.9352 H   0  0  0  0  0  0  0  0  0  0  0  0
   -1.4282    1.2689    0.6990 H   0  0  0  0  0  0  0  0  0  0  0  0
   -0.5988   -1.2723   -0.8546 H   0  0  0  0  0  0  0  0  0  0  0  0
   -2.5931    0.4350   -1.4867 H   0  0  0  0  0  0  0  0  0  0  0  0
   -2.8940   -1.3846   -1.3159 H   0  0  0  0  0  0  0  0  0  0  0  0
   -3.5318    1.0045    0.4996 H   0  0  0  0  0  0  0  0  0  0  0  0
   -4.3893   -0.5731    0.4101 H   0  0  0  0  0  0  0  0  0  0  0  0
  1  2  1  0
  2  3  1  0
  3  4  1  0
  4  5  1  0
  5  6  1  0
  6  7  1  0
  7  8  1  0
  8  9  1  0
  9 10  2  0
  9 11  1  0
 11  6  1  0
  1 12  1  0
  1 13  1  0
  1 14  1  0
  2 15  1  0
  2 16  1  0
  3 17  1  0
  3 18  1  0
  4 19  1  0
  4 20  1  0
  5 21  1  0
  5 22  1  0
  6 23  1  0
  7 24  1  0
  7 25  1  0
  8 26  1  0
  8 27  1  0
M  END
>  <Ligand ID>  (1) 
LIG0002071

>  <Ligand>  (1) 
Gamma-Nonalactone

>  <SMILES>  (1) 
CCCCCC1CCC(=O)O1

>  <CID>  (1) 
7710.0

>  <ChEMBL ID>  (1) 
nan

>  <InChiKey>  (1) 
OALYTRUKMRCXNH-UHFFFAOYSA-N

>  <InChi>  (1) 
InChI=1S/C9H16O2/c1-2-3-4-5-8-6-7-9(10)11-8/h8H,2-7H2,1H3

>  <IUPAC Name>  (1) 
5-pentyloxolan-2-one

$$$$
