
     RDKit          3D

 28 29  0  0  0  0  0  0  0  0999 V2000
    3.2341    2.4344    0.2058 O   0  0  0  0  0  0  0  0  0  0  0  0
    3.4091    1.1115   -0.2379 C   0  0  0  0  0  0  0  0  0  0  0  0
    4.5595    0.6460   -0.4476 O   0  0  0  0  0  0  0  0  0  0  0  0
    2.1642    0.3087   -0.4390 C   0  0  2  0  0  0  0  0  0  0  0  0
    1.4890    0.1163    0.8959 C   0  0  0  0  0  0  0  0  0  0  0  0
    0.2362   -0.6747    0.7755 C   0  0  0  0  0  0  0  0  0  0  0  0
    0.0418   -2.0074    1.1066 C   0  0  0  0  0  0  0  0  0  0  0  0
   -1.2396   -2.3361    0.8422 N   0  0  0  0  0  0  0  0  0  0  0  0
   -1.8407   -1.2423    0.3570 C   0  0  0  0  0  0  0  0  0  0  0  0
   -0.9658   -0.1886    0.2976 C   0  0  0  0  0  0  0  0  0  0  0  0
   -1.3163    1.0722   -0.1627 C   0  0  0  0  0  0  0  0  0  0  0  0
   -2.6154    1.2843   -0.5851 C   0  0  0  0  0  0  0  0  0  0  0  0
   -2.9954    2.5435   -1.0522 O   0  0  0  0  0  0  0  0  0  0  0  0
   -3.4900    0.2194   -0.5229 C   0  0  0  0  0  0  0  0  0  0  0  0
   -3.1497   -1.0285   -0.0694 C   0  0  0  0  0  0  0  0  0  0  0  0
    2.5754   -0.9958   -0.9398 N   0  0  0  0  0  0  0  0  0  0  0  0
    4.0106    3.0897    0.1903 H   0  0  0  0  0  0  0  0  0  0  0  0
    1.5287    0.8286   -1.1779 H   0  0  0  0  0  0  0  0  0  0  0  0
    1.2993    1.0843    1.4042 H   0  0  0  0  0  0  0  0  0  0  0  0
    2.2333   -0.4244    1.5402 H   0  0  0  0  0  0  0  0  0  0  0  0
    0.8458   -2.6098    1.5065 H   0  0  0  0  0  0  0  0  0  0  0  0
   -1.6371   -3.2859    1.0065 H   0  0  0  0  0  0  0  0  0  0  0  0
   -0.6108    1.8801   -0.2000 H   0  0  0  0  0  0  0  0  0  0  0  0
   -3.8624    2.6047   -1.6035 H   0  0  0  0  0  0  0  0  0  0  0  0
   -4.5073    0.4149   -0.8628 H   0  0  0  0  0  0  0  0  0  0  0  0
   -3.8493   -1.8369   -0.0307 H   0  0  0  0  0  0  0  0  0  0  0  0
    2.6036   -1.7015   -0.1707 H   0  0  0  0  0  0  0  0  0  0  0  0
    1.8492   -1.3066   -1.6262 H   0  0  0  0  0  0  0  0  0  0  0  0
  1  2  1  0
  2  3  2  0
  2  4  1  0
  4  5  1  0
  5  6  1  0
  6  7  2  0
  7  8  1  0
  8  9  1  0
  9 10  2  0
 10 11  1  0
 11 12  2  0
 12 13  1  0
 12 14  1  0
 14 15  2  0
  4 16  1  0
 10  6  1  0
 15  9  1  0
  1 17  1  0
  4 18  1  6
  5 19  1  0
  5 20  1  0
  7 21  1  0
  8 22  1  0
 11 23  1  0
 13 24  1  0
 14 25  1  0
 15 26  1  0
 16 27  1  0
 16 28  1  0
M  END
>  <Ligand ID>  (1) 
LIG0001281

>  <Ligand>  (1) 
5-hydroxy-L-tryptophan

>  <SMILES>  (1) 
OC(=O)[C@H](Cc1c[nH]c2c1cc(O)cc2)N

>  <CID>  (1) 
439280.0

>  <ChEMBL ID>  (1) 
nan

>  <InChiKey>  (1) 
LDCYZAJDBXYCGN-VIFPVBQESA-N

>  <InChi>  (1) 
InChI=1S/C11H12N2O3/c12-9(11(15)16)3-6-5-13-10-2-1-7(14)4-8(6)10/h1-2,4-5,9,13-14H,3,12H2,(H,15,16)/t9-/m0/s1

>  <IUPAC Name>  (1) 
(2S)-2-amino-3-(5-hydroxy-1H-indol-3-yl)propanoic acid

$$$$
