
     RDKit          3D

 47 47  0  0  0  0  0  0  0  0999 V2000
    5.8800    1.2809    0.9758 O   0  0  0  0  0  0  0  0  0  0  0  0
    6.2577   -0.0200    0.8218 C   0  0  0  0  0  0  0  0  0  0  0  0
    7.3031   -0.3670    1.5060 O   0  0  0  0  0  0  0  0  0  0  0  0
    5.6641   -1.0689    0.0094 C   0  0  0  0  0  0  0  0  0  0  0  0
    4.5663   -0.8081   -0.7801 O   0  0  0  0  0  0  0  0  0  0  0  0
    3.3221   -0.3614   -0.5250 C   0  0  0  0  0  0  0  0  0  0  0  0
    2.8501    0.9234   -0.6216 C   0  0  0  0  0  0  0  0  0  0  0  0
    3.7113    2.0107   -1.0982 C   0  0  0  0  0  0  0  0  0  0  0  0
    1.5339    1.2465   -0.3177 C   0  0  0  0  0  0  0  0  0  0  0  0
    0.6210    0.2831    0.1002 C   0  0  0  0  0  0  0  0  0  0  0  0
    1.0866   -0.9983    0.1963 C   0  0  0  0  0  0  0  0  0  0  0  0
    2.3800   -1.3141   -0.1019 C   0  0  0  0  0  0  0  0  0  0  0  0
    2.7872   -2.7418    0.0356 C   0  0  0  0  0  0  0  0  0  0  0  0
   -0.7538    0.7079    0.4025 C   0  0  0  0  0  0  0  0  0  0  0  0
   -1.8892   -0.7015    0.4369 P   0  0  0  0  0  0  0  0  0  0  0  0
   -1.6239   -1.5675    1.6697 O   0  0  0  0  0  0  0  0  0  0  0  0
   -3.5612   -0.0296    0.6222 C   0  0  0  0  0  0  0  0  0  0  0  0
   -4.5544   -0.6521   -0.3133 C   0  0  0  0  0  0  0  0  0  0  0  0
   -5.8969    0.0275   -0.0210 C   0  0  2  0  0  0  0  0  0  0  0  0
   -5.6898    1.4792   -0.2866 C   0  0  0  0  0  0  0  0  0  0  0  0
   -5.8580    2.2736    0.6845 O   0  0  0  0  0  0  0  0  0  0  0  0
   -5.3266    1.9667   -1.5409 O   0  0  0  0  0  0  0  0  0  0  0  0
   -6.2603   -0.1160    1.3651 N   0  0  0  0  0  0  0  0  0  0  0  0
   -1.7208   -1.6198   -0.9631 O   0  0  0  0  0  0  0  0  0  0  0  0
   -1.1610    1.5585   -0.6230 O   0  0  0  0  0  0  0  0  0  0  0  0
    6.1395    1.8352    1.7829 H   0  0  0  0  0  0  0  0  0  0  0  0
    6.4757   -1.4490   -0.7086 H   0  0  0  0  0  0  0  0  0  0  0  0
    5.4753   -1.9423    0.7192 H   0  0  0  0  0  0  0  0  0  0  0  0
    3.9051    2.7892   -0.3338 H   0  0  0  0  0  0  0  0  0  0  0  0
    4.6509    1.6422   -1.5795 H   0  0  0  0  0  0  0  0  0  0  0  0
    3.1496    2.5220   -1.9286 H   0  0  0  0  0  0  0  0  0  0  0  0
    1.1927    2.2752   -0.4038 H   0  0  0  0  0  0  0  0  0  0  0  0
    0.4000   -1.7595    0.5163 H   0  0  0  0  0  0  0  0  0  0  0  0
    1.9302   -3.3327   -0.3921 H   0  0  0  0  0  0  0  0  0  0  0  0
    2.8358   -3.0082    1.1077 H   0  0  0  0  0  0  0  0  0  0  0  0
    3.6980   -2.9784   -0.5330 H   0  0  0  0  0  0  0  0  0  0  0  0
   -0.8364    1.2584    1.3643 H   0  0  0  0  0  0  0  0  0  0  0  0
   -3.9470   -0.1521    1.6579 H   0  0  0  0  0  0  0  0  0  0  0  0
   -3.5968    1.0723    0.4434 H   0  0  0  0  0  0  0  0  0  0  0  0
   -4.6347   -1.7447   -0.2112 H   0  0  0  0  0  0  0  0  0  0  0  0
   -4.3146   -0.4376   -1.3775 H   0  0  0  0  0  0  0  0  0  0  0  0
   -6.6978   -0.3932   -0.6357 H   0  0  0  0  0  0  0  0  0  0  0  0
   -5.0386    2.9466   -1.6694 H   0  0  0  0  0  0  0  0  0  0  0  0
   -6.1582   -1.0778    1.7285 H   0  0  0  0  0  0  0  0  0  0  0  0
   -5.9111    0.6183    1.9958 H   0  0  0  0  0  0  0  0  0  0  0  0
   -1.2310   -1.1299   -1.6895 H   0  0  0  0  0  0  0  0  0  0  0  0
   -1.1542    1.0541   -1.4866 H   0  0  0  0  0  0  0  0  0  0  0  0
  1  2  1  0
  2  3  2  0
  2  4  1  0
  4  5  1  0
  5  6  1  0
  6  7  2  0
  7  8  1  0
  7  9  1  0
  9 10  2  0
 10 11  1  0
 11 12  2  0
 12 13  1  0
 10 14  1  0
 14 15  1  0
 15 16  2  0
 15 17  1  0
 17 18  1  0
 18 19  1  0
 19 20  1  0
 20 21  2  0
 20 22  1  0
 19 23  1  0
 15 24  1  0
 14 25  1  0
 12  6  1  0
  1 26  1  0
  4 27  1  0
  4 28  1  0
  8 29  1  0
  8 30  1  0
  8 31  1  0
  9 32  1  0
 11 33  1  0
 13 34  1  0
 13 35  1  0
 13 36  1  0
 14 37  1  0
 17 38  1  0
 17 39  1  0
 18 40  1  0
 18 41  1  0
 19 42  1  6
 22 43  1  0
 23 44  1  0
 23 45  1  0
 24 46  1  0
 25 47  1  0
M  END
>  <Ligand ID>  (1) 
LIG0001718

>  <Ligand>  (1) 
US9212196, Derivative 10

>  <SMILES>  (1) 
OC(=O)COc1c(C)cc(cc1C)C(P(=O)(CC[C@H](C(=O)O)N)O)O

>  <CID>  (1) 
122197942.0

>  <ChEMBL ID>  (1) 
nan

>  <InChiKey>  (1) 
HECCCCVGDLWFAY-ZRKZCGFPSA-N

>  <InChi>  (1) 
InChI=1S/C15H22NO8P/c1-8-5-10(6-9(2)13(8)24-7-12(17)18)15(21)25(22,23)4-3-11(16)14(19)20/h5-6,11,15,21H,3-4,7,16H2,1-2H3,(H,17,18)(H,19,20)(H,22,23)/t11-,15?/m1/s1

>  <IUPAC Name>  (1) 
(2R)-2-amino-4-[[[4-(carboxymethoxy)-3,5-dimethylphenyl]-hydroxymethyl]-hydroxyphosphoryl]butanoic acid

$$$$
