
     RDKit          3D

 51 54  0  0  0  0  0  0  0  0999 V2000
    0.0607   -2.3210    1.0247 O   0  0  0  0  0  0  0  0  0  0  0  0
    0.6197   -1.3544    0.4358 C   0  0  0  0  0  0  0  0  0  0  0  0
   -0.2895   -0.3437   -0.1334 N   0  0  0  0  0  0  0  0  0  0  0  0
   -1.6665   -0.6067    0.0643 C   0  0  0  0  0  0  0  0  0  0  0  0
   -2.5719    0.4142    0.5954 C   0  0  0  0  0  0  0  0  0  0  0  0
   -3.8061   -0.3607    1.1053 C   0  0  0  0  0  0  0  0  0  0  0  0
   -4.7213   -0.7334   -0.0064 C   0  0  0  0  0  0  0  0  0  0  0  0
   -4.4581   -2.0974   -0.5543 C   0  0  0  0  0  0  0  0  0  0  0  0
   -3.0927   -2.3275   -1.1023 C   0  0  0  0  0  0  0  0  0  0  0  0
   -2.2931   -1.0427   -1.2736 C   0  0  0  0  0  0  0  0  0  0  0  0
    0.3584    0.7557   -0.7602 C   0  0  0  0  0  0  0  0  0  0  0  0
   -0.0238    0.8455   -2.2232 C   0  0  0  0  0  0  0  0  0  0  0  0
    0.6021    2.1649   -2.6819 C   0  0  0  0  0  0  0  0  0  0  0  0
    0.4862    3.0401   -1.4587 C   0  0  0  0  0  0  0  0  0  0  0  0
    0.0255    2.1373   -0.3033 C   0  0  0  0  0  0  0  0  0  0  0  0
    2.0402   -1.2466    0.3273 C   0  0  0  0  0  0  0  0  0  0  0  0
    2.7896   -1.8290   -0.6547 N   0  0  0  0  0  0  0  0  0  0  0  0
    4.0506   -1.5209   -0.4463 O   0  0  0  0  0  0  0  0  0  0  0  0
    4.1621   -0.7699    0.6171 C   0  0  0  0  0  0  0  0  0  0  0  0
    2.9127   -0.5553    1.1618 C   0  0  0  0  0  0  0  0  0  0  0  0
    5.4056   -0.1955    1.2130 C   0  0  0  0  0  0  0  0  0  0  0  0
    5.2353    1.1092    1.9615 C   0  0  0  0  0  0  0  0  0  0  0  0
    5.5193   -0.1226    2.7249 C   0  0  0  0  0  0  0  0  0  0  0  0
   -1.7408   -1.5591    0.6910 H   0  0  0  0  0  0  0  0  0  0  0  0
   -3.0061    1.0498   -0.2344 H   0  0  0  0  0  0  0  0  0  0  0  0
   -2.2681    1.0172    1.4418 H   0  0  0  0  0  0  0  0  0  0  0  0
   -3.4399   -1.2953    1.5800 H   0  0  0  0  0  0  0  0  0  0  0  0
   -4.3157    0.1999    1.9165 H   0  0  0  0  0  0  0  0  0  0  0  0
   -5.7539   -0.7931    0.4516 H   0  0  0  0  0  0  0  0  0  0  0  0
   -4.8185    0.0674   -0.7620 H   0  0  0  0  0  0  0  0  0  0  0  0
   -5.2613   -2.2989   -1.3156 H   0  0  0  0  0  0  0  0  0  0  0  0
   -4.6225   -2.8214    0.2750 H   0  0  0  0  0  0  0  0  0  0  0  0
   -2.4671   -2.9828   -0.4706 H   0  0  0  0  0  0  0  0  0  0  0  0
   -3.1803   -2.7808   -2.1097 H   0  0  0  0  0  0  0  0  0  0  0  0
   -1.5190   -1.2819   -2.0228 H   0  0  0  0  0  0  0  0  0  0  0  0
   -2.9313   -0.2441   -1.6998 H   0  0  0  0  0  0  0  0  0  0  0  0
    1.4753    0.6488   -0.7102 H   0  0  0  0  0  0  0  0  0  0  0  0
   -1.1051    1.0022   -2.3879 H   0  0  0  0  0  0  0  0  0  0  0  0
    0.4464    0.0494   -2.7902 H   0  0  0  0  0  0  0  0  0  0  0  0
    1.6294    2.0412   -3.0593 H   0  0  0  0  0  0  0  0  0  0  0  0
    0.0003    2.6278   -3.4878 H   0  0  0  0  0  0  0  0  0  0  0  0
    1.5023    3.4536   -1.2841 H   0  0  0  0  0  0  0  0  0  0  0  0
   -0.1856    3.8912   -1.5994 H   0  0  0  0  0  0  0  0  0  0  0  0
   -1.0217    2.3720   -0.1595 H   0  0  0  0  0  0  0  0  0  0  0  0
    0.7025    2.4020    0.5371 H   0  0  0  0  0  0  0  0  0  0  0  0
    2.6294    0.0161    2.0398 H   0  0  0  0  0  0  0  0  0  0  0  0
    6.3734   -0.4109    0.7174 H   0  0  0  0  0  0  0  0  0  0  0  0
    6.0791    1.8180    1.7994 H   0  0  0  0  0  0  0  0  0  0  0  0
    4.2525    1.5931    1.9161 H   0  0  0  0  0  0  0  0  0  0  0  0
    4.6959   -0.6162    3.3080 H   0  0  0  0  0  0  0  0  0  0  0  0
    6.5057   -0.2047    3.1948 H   0  0  0  0  0  0  0  0  0  0  0  0
  1  2  2  0
  2  3  1  0
  3  4  1  0
  4  5  1  0
  5  6  1  0
  6  7  1  0
  7  8  1  0
  8  9  1  0
  9 10  1  0
  3 11  1  0
 11 12  1  0
 12 13  1  0
 13 14  1  0
 14 15  1  0
  2 16  1  0
 16 17  2  0
 17 18  1  0
 18 19  1  0
 19 20  2  0
 19 21  1  0
 21 22  1  0
 22 23  1  0
 10  4  1  0
 15 11  1  0
 20 16  1  0
 23 21  1  0
  4 24  1  0
  5 25  1  0
  5 26  1  0
  6 27  1  0
  6 28  1  0
  7 29  1  0
  7 30  1  0
  8 31  1  0
  8 32  1  0
  9 33  1  0
  9 34  1  0
 10 35  1  0
 10 36  1  0
 11 37  1  0
 12 38  1  0
 12 39  1  0
 13 40  1  0
 13 41  1  0
 14 42  1  0
 14 43  1  0
 15 44  1  0
 15 45  1  0
 20 46  1  0
 21 47  1  0
 22 48  1  0
 22 49  1  0
 23 50  1  0
 23 51  1  0
M  END
>  <Ligand ID>  (1) 
LIG0001372

>  <Ligand>  (1) 
CHEMBL1976353

>  <SMILES>  (1) 
O=C(N(C1CCCCCC1)C1CCCC1)c1noc(c1)C1CC1

>  <CID>  (1) 
25110511.0

>  <ChEMBL ID>  (1) 
nan

>  <InChiKey>  (1) 
NQYUDXFRHWJJPT-UHFFFAOYSA-N

>  <InChi>  (1) 
InChI=1S/C19H28N2O2/c22-19(17-13-18(23-20-17)14-11-12-14)21(16-9-5-6-10-16)15-7-3-1-2-4-8-15/h13-16H,1-12H2

>  <IUPAC Name>  (1) 
N-cycloheptyl-N-cyclopentyl-5-cyclopropyl-1,2-oxazole-3-carboxamide

$$$$
