
     RDKit          3D

 52 54  0  0  0  0  0  0  0  0999 V2000
   -3.7818    2.6068    1.4115 C   0  0  0  0  0  0  0  0  0  0  0  0
   -4.5179    1.7102    0.5758 N   0  0  0  0  0  0  0  0  0  0  0  0
   -3.7591    1.0711   -0.4634 C   0  0  0  0  0  0  0  0  0  0  0  0
   -2.7591    0.0868    0.0998 C   0  0  0  0  0  0  0  0  0  0  0  0
   -1.9807   -0.5741   -1.0161 C   0  0  0  0  0  0  0  0  0  0  0  0
   -1.0237   -1.5248   -0.4743 N   0  0  0  0  0  0  0  0  0  0  0  0
    0.2499   -1.3545   -0.1083 C   0  0  0  0  0  0  0  0  0  0  0  0
    0.9821   -0.1372   -0.1850 N   0  0  0  0  0  0  0  0  0  0  0  0
    2.3407   -0.1180    0.2435 C   0  0  0  0  0  0  0  0  0  0  0  0
    2.8588   -1.1819    0.6823 O   0  0  0  0  0  0  0  0  0  0  0  0
    3.1928    1.0939    0.2035 C   0  0  0  0  0  0  0  0  0  0  0  0
    4.5507    0.6807    0.7543 C   0  0  0  0  0  0  0  0  0  0  0  0
    5.5867    1.7582    0.6471 C   0  0  0  0  0  0  0  0  0  0  0  0
    5.5811    2.3866   -0.7268 C   0  0  0  0  0  0  0  0  0  0  0  0
    4.8159    1.5088   -1.6755 C   0  0  0  0  0  0  0  0  0  0  0  0
    3.3528    1.4727   -1.2658 C   0  0  0  0  0  0  0  0  0  0  0  0
    0.7174   -2.5457    0.3434 N   0  0  0  0  0  0  0  0  0  0  0  0
   -0.2787   -3.4646    0.2557 C   0  0  0  0  0  0  0  0  0  0  0  0
   -1.3799   -2.8259   -0.2598 C   0  0  0  0  0  0  0  0  0  0  0  0
   -2.5711   -3.5255   -0.4658 C   0  0  0  0  0  0  0  0  0  0  0  0
   -2.6567   -4.8564   -0.1567 C   0  0  0  0  0  0  0  0  0  0  0  0
   -1.5422   -5.4894    0.3618 C   0  0  0  0  0  0  0  0  0  0  0  0
   -0.3535   -4.8116    0.5725 C   0  0  0  0  0  0  0  0  0  0  0  0
   -5.7073    2.3783    0.1066 C   0  0  0  0  0  0  0  0  0  0  0  0
   -4.0577    3.6729    1.2373 H   0  0  0  0  0  0  0  0  0  0  0  0
   -2.6846    2.5009    1.3051 H   0  0  0  0  0  0  0  0  0  0  0  0
   -4.0048    2.4414    2.5033 H   0  0  0  0  0  0  0  0  0  0  0  0
   -3.2405    1.8683   -1.0366 H   0  0  0  0  0  0  0  0  0  0  0  0
   -4.4746    0.5770   -1.1509 H   0  0  0  0  0  0  0  0  0  0  0  0
   -3.2872   -0.6274    0.7298 H   0  0  0  0  0  0  0  0  0  0  0  0
   -2.0238    0.6738    0.7046 H   0  0  0  0  0  0  0  0  0  0  0  0
   -1.4878    0.2327   -1.6114 H   0  0  0  0  0  0  0  0  0  0  0  0
   -2.7008   -1.0536   -1.6991 H   0  0  0  0  0  0  0  0  0  0  0  0
    0.5466    0.7218   -0.5426 H   0  0  0  0  0  0  0  0  0  0  0  0
    2.8092    1.9287    0.7993 H   0  0  0  0  0  0  0  0  0  0  0  0
    4.8904   -0.2605    0.2807 H   0  0  0  0  0  0  0  0  0  0  0  0
    4.4197    0.4663    1.8296 H   0  0  0  0  0  0  0  0  0  0  0  0
    5.4717    2.5058    1.4518 H   0  0  0  0  0  0  0  0  0  0  0  0
    6.5853    1.2560    0.7530 H   0  0  0  0  0  0  0  0  0  0  0  0
    5.0776    3.3686   -0.6772 H   0  0  0  0  0  0  0  0  0  0  0  0
    6.6099    2.5325   -1.1268 H   0  0  0  0  0  0  0  0  0  0  0  0
    4.8239    1.9376   -2.7020 H   0  0  0  0  0  0  0  0  0  0  0  0
    5.2492    0.5035   -1.7251 H   0  0  0  0  0  0  0  0  0  0  0  0
    2.8805    0.7196   -1.9400 H   0  0  0  0  0  0  0  0  0  0  0  0
    2.8938    2.4448   -1.5008 H   0  0  0  0  0  0  0  0  0  0  0  0
   -3.4338   -3.0273   -0.8686 H   0  0  0  0  0  0  0  0  0  0  0  0
   -3.5708   -5.4166   -0.3090 H   0  0  0  0  0  0  0  0  0  0  0  0
   -1.5511   -6.5496    0.6268 H   0  0  0  0  0  0  0  0  0  0  0  0
    0.5326   -5.3123    0.9840 H   0  0  0  0  0  0  0  0  0  0  0  0
   -5.6762    2.6466   -0.9550 H   0  0  0  0  0  0  0  0  0  0  0  0
   -6.5405    1.6506    0.2570 H   0  0  0  0  0  0  0  0  0  0  0  0
   -5.9738    3.2535    0.7591 H   0  0  0  0  0  0  0  0  0  0  0  0
  1  2  1  0
  2  3  1  0
  3  4  1  0
  4  5  1  0
  5  6  1  0
  6  7  1  0
  7  8  1  0
  8  9  1  0
  9 10  2  0
  9 11  1  0
 11 12  1  0
 12 13  1  0
 13 14  1  0
 14 15  1  0
 15 16  1  0
  7 17  2  0
 17 18  1  0
 18 19  2  0
 19 20  1  0
 20 21  2  0
 21 22  1  0
 22 23  2  0
  2 24  1  0
 19  6  1  0
 16 11  1  0
 23 18  1  0
  1 25  1  0
  1 26  1  0
  1 27  1  0
  3 28  1  0
  3 29  1  0
  4 30  1  0
  4 31  1  0
  5 32  1  0
  5 33  1  0
  8 34  1  0
 11 35  1  0
 12 36  1  0
 12 37  1  0
 13 38  1  0
 13 39  1  0
 14 40  1  0
 14 41  1  0
 15 42  1  0
 15 43  1  0
 16 44  1  0
 16 45  1  0
 20 46  1  0
 21 47  1  0
 22 48  1  0
 23 49  1  0
 24 50  1  0
 24 51  1  0
 24 52  1  0
M  END
>  <Ligand ID>  (1) 
LIG0004548

>  <Ligand>  (1) 
MLS000036322

>  <SMILES>  (1) 
CN(CCCn1c(NC(=O)C2CCCCC2)nc2c1cccc2)C

>  <CID>  (1) 
660499.0

>  <ChEMBL ID>  (1) 
nan

>  <InChiKey>  (1) 
ZDBUAKRDJWNFCB-UHFFFAOYSA-N

>  <InChi>  (1) 
InChI=1S/C19H28N4O/c1-22(2)13-8-14-23-17-12-7-6-11-16(17)20-19(23)21-18(24)15-9-4-3-5-10-15/h6-7,11-12,15H,3-5,8-10,13-14H2,1-2H3,(H,20,21,24)

>  <IUPAC Name>  (1) 
N-[1-[3-(dimethylamino)propyl]benzimidazol-2-yl]cyclohexanecarboxamide

$$$$
