
     RDKit          3D

 59 62  0  0  0  0  0  0  0  0999 V2000
   -3.0205    0.5912   -3.2299 C   0  0  0  0  0  0  0  0  0  0  0  0
   -2.8539    1.0641   -1.7564 C   0  0  0  0  0  0  0  0  0  0  0  0
   -2.8769   -0.1336   -0.9067 N   0  0  0  0  0  0  0  0  0  0  0  0
   -1.6439   -0.8085   -0.6559 C   0  0  0  0  0  0  0  0  0  0  0  0
   -1.7898   -1.8847    0.0683 O   0  0  0  0  0  0  0  0  0  0  0  0
   -0.3074   -0.5038   -1.0596 C   0  0  0  0  0  0  0  0  0  0  0  0
    0.3646    0.7311   -0.5112 C   0  0  0  0  0  0  0  0  0  0  0  0
    1.8779    0.4977   -0.5795 C   0  0  0  0  0  0  0  0  0  0  0  0
    2.2130   -0.5716   -1.4664 N   0  0  0  0  0  0  0  0  0  0  0  0
    1.4794   -0.6530   -2.6878 C   0  0  0  0  0  0  0  0  0  0  0  0
   -0.0155   -0.4402   -2.5563 C   0  0  0  0  0  0  0  0  0  0  0  0
    3.8724   -0.3627   -1.8896 S   0  0  0  0  0  0  0  0  0  0  0  0
    4.3413   -1.3855   -2.8891 O   0  0  0  0  0  0  0  0  0  0  0  0
    3.9944    1.0251   -2.4923 O   0  0  0  0  0  0  0  0  0  0  0  0
    4.9383   -0.4482   -0.5198 C   0  0  0  0  0  0  0  0  0  0  0  0
    5.5117   -1.6309   -0.0922 C   0  0  0  0  0  0  0  0  0  0  0  0
    6.3608   -1.6384    1.0211 C   0  0  0  0  0  0  0  0  0  0  0  0
    6.6161   -0.4740    1.6780 C   0  0  0  0  0  0  0  0  0  0  0  0
    6.0529    0.6931    1.2599 C   0  0  0  0  0  0  0  0  0  0  0  0
    5.2095    0.7230    0.1600 C   0  0  0  0  0  0  0  0  0  0  0  0
    6.4812    1.7168    2.1067 C   0  0  0  0  0  0  0  0  0  0  0  0
    7.3023    1.1214    3.0222 N   0  0  0  0  0  0  0  0  0  0  0  0
    7.3651   -0.1762    2.7458 N   0  0  0  0  0  0  0  0  0  0  0  0
   -4.1017   -0.7109   -0.4068 C   0  0  0  0  0  0  0  0  0  0  0  0
   -4.5678   -0.4841    0.9346 C   0  0  0  0  0  0  0  0  0  0  0  0
   -4.4067   -1.5729    1.8351 C   0  0  0  0  0  0  0  0  0  0  0  0
   -4.8291   -1.5499    3.1280 C   0  0  0  0  0  0  0  0  0  0  0  0
   -5.4530   -0.4482    3.6576 C   0  0  0  0  0  0  0  0  0  0  0  0
   -5.6266    0.6264    2.8140 C   0  0  0  0  0  0  0  0  0  0  0  0
   -5.1901    0.6027    1.4807 C   0  0  0  0  0  0  0  0  0  0  0  0
   -5.4082    1.8361    0.7052 C   0  0  0  0  0  0  0  0  0  0  0  0
   -6.2009    2.7071    1.4930 F   0  0  0  0  0  0  0  0  0  0  0  0
   -6.0679    1.7083   -0.4605 F   0  0  0  0  0  0  0  0  0  0  0  0
   -4.2190    2.5822    0.6288 F   0  0  0  0  0  0  0  0  0  0  0  0
   -2.8089   -0.4831   -3.3167 H   0  0  0  0  0  0  0  0  0  0  0  0
   -4.0486    0.7636   -3.5650 H   0  0  0  0  0  0  0  0  0  0  0  0
   -2.2933    1.1709   -3.8269 H   0  0  0  0  0  0  0  0  0  0  0  0
   -2.0060    1.7110   -1.6199 H   0  0  0  0  0  0  0  0  0  0  0  0
   -3.7486    1.7012   -1.6357 H   0  0  0  0  0  0  0  0  0  0  0  0
    0.3669   -1.3442   -0.7070 H   0  0  0  0  0  0  0  0  0  0  0  0
    0.0261    1.0394    0.4738 H   0  0  0  0  0  0  0  0  0  0  0  0
    0.1994    1.5596   -1.2238 H   0  0  0  0  0  0  0  0  0  0  0  0
    2.4128    1.4293   -0.8199 H   0  0  0  0  0  0  0  0  0  0  0  0
    2.1983    0.1879    0.4436 H   0  0  0  0  0  0  0  0  0  0  0  0
    1.8484    0.0378   -3.4723 H   0  0  0  0  0  0  0  0  0  0  0  0
    1.5929   -1.7311   -3.0318 H   0  0  0  0  0  0  0  0  0  0  0  0
   -0.5468   -1.1818   -3.1457 H   0  0  0  0  0  0  0  0  0  0  0  0
   -0.1799    0.6109   -2.8771 H   0  0  0  0  0  0  0  0  0  0  0  0
    5.3064   -2.5459   -0.6132 H   0  0  0  0  0  0  0  0  0  0  0  0
    6.7884   -2.5947    1.3188 H   0  0  0  0  0  0  0  0  0  0  0  0
    4.7825    1.6734   -0.1392 H   0  0  0  0  0  0  0  0  0  0  0  0
    6.2124    2.7655    2.0430 H   0  0  0  0  0  0  0  0  0  0  0  0
    7.9155   -0.9181    3.2661 H   0  0  0  0  0  0  0  0  0  0  0  0
   -4.9424   -0.4975   -1.1777 H   0  0  0  0  0  0  0  0  0  0  0  0
   -3.9693   -1.8218   -0.5904 H   0  0  0  0  0  0  0  0  0  0  0  0
   -3.9342   -2.4945    1.4964 H   0  0  0  0  0  0  0  0  0  0  0  0
   -4.6822   -2.4062    3.7736 H   0  0  0  0  0  0  0  0  0  0  0  0
   -5.7733   -0.4711    4.6866 H   0  0  0  0  0  0  0  0  0  0  0  0
   -6.1190    1.4903    3.2391 H   0  0  0  0  0  0  0  0  0  0  0  0
  1  2  1  0
  2  3  1  0
  3  4  1  0
  4  5  2  0
  4  6  1  0
  6  7  1  0
  7  8  1  0
  8  9  1  0
  9 10  1  0
 10 11  1  0
  9 12  1  0
 12 13  2  0
 12 14  2  0
 12 15  1  0
 15 16  2  0
 16 17  1  0
 17 18  2  0
 18 19  1  0
 19 20  2  0
 19 21  1  0
 21 22  2  0
 22 23  1  0
  3 24  1  0
 24 25  1  0
 25 26  2  0
 26 27  1  0
 27 28  2  0
 28 29  1  0
 29 30  2  0
 30 31  1  0
 31 32  1  0
 31 33  1  0
 31 34  1  0
 11  6  1  0
 20 15  1  0
 30 25  1  0
 23 18  1  0
  1 35  1  0
  1 36  1  0
  1 37  1  0
  2 38  1  0
  2 39  1  0
  6 40  1  0
  7 41  1  0
  7 42  1  0
  8 43  1  0
  8 44  1  0
 10 45  1  0
 10 46  1  0
 11 47  1  0
 11 48  1  0
 16 49  1  0
 17 50  1  0
 20 51  1  0
 21 52  1  0
 23 53  1  0
 24 54  1  0
 24 55  1  0
 26 56  1  0
 27 57  1  0
 28 58  1  0
 29 59  1  0
M  END
>  <Ligand ID>  (1) 
LIG0000443

>  <Ligand>  (1) 
CHEMBL3329755

>  <SMILES>  (1) 
CCN(C(=O)C1CCN(CC1)S(=O)(=O)c1ccc2c(c1)cn[nH]2)Cc1ccccc1C(F)(F)F

>  <CID>  (1) 
71737672.0

>  <ChEMBL ID>  (1) 
nan

>  <InChiKey>  (1) 
FJPQEOQGIZSLES-UHFFFAOYSA-N

>  <InChi>  (1) 
InChI=1S/C23H25F3N4O3S/c1-2-29(15-17-5-3-4-6-20(17)23(24,25)26)22(31)16-9-11-30(12-10-16)34(32,33)19-7-8-21-18(13-19)14-27-28-21/h3-8,13-14,16H,2,9-12,15H2,1H3,(H,27,28)

>  <IUPAC Name>  (1) 
N-ethyl-1-(1H-indazol-5-ylsulfonyl)-N-[[2-(trifluoromethyl)phenyl]methyl]piperidine-4-carboxamide

$$$$
