
     RDKit          3D

 27 26  0  0  0  0  0  0  0  0999 V2000
    3.6625   -0.4530    0.3462 C   0  0  0  0  0  0  0  0  0  0  0  0
    2.5846    0.4880   -0.0795 C   0  0  0  0  0  0  0  0  0  0  0  0
    1.1980   -0.1038    0.0640 C   0  0  0  0  0  0  0  0  0  0  0  0
    0.2237    0.9388   -0.3945 C   0  0  0  0  0  0  0  0  0  0  0  0
   -1.2188    0.5226   -0.3158 C   0  0  0  0  0  0  0  0  0  0  0  0
   -1.4225   -0.6865   -1.1815 C   0  0  0  0  0  0  0  0  0  0  0  0
   -1.0895   -0.3745   -2.4986 O   0  0  0  0  0  0  0  0  0  0  0  0
   -1.5746    0.2574    1.1331 C   0  0  0  0  0  0  0  0  0  0  0  0
   -3.0351   -0.1692    1.2599 C   0  0  0  0  0  0  0  0  0  0  0  0
    4.0804   -1.0533   -0.4938 H   0  0  0  0  0  0  0  0  0  0  0  0
    4.5000    0.1498    0.7600 H   0  0  0  0  0  0  0  0  0  0  0  0
    3.3241   -1.1266    1.1684 H   0  0  0  0  0  0  0  0  0  0  0  0
    2.7182    0.7102   -1.1511 H   0  0  0  0  0  0  0  0  0  0  0  0
    2.6382    1.4105    0.5267 H   0  0  0  0  0  0  0  0  0  0  0  0
    1.1229   -0.9775   -0.6375 H   0  0  0  0  0  0  0  0  0  0  0  0
    0.9954   -0.4868    1.0687 H   0  0  0  0  0  0  0  0  0  0  0  0
    0.3086    1.8651    0.2381 H   0  0  0  0  0  0  0  0  0  0  0  0
    0.4682    1.3045   -1.4188 H   0  0  0  0  0  0  0  0  0  0  0  0
   -1.8370    1.3637   -0.6489 H   0  0  0  0  0  0  0  0  0  0  0  0
   -0.7992   -1.5506   -0.8828 H   0  0  0  0  0  0  0  0  0  0  0  0
   -2.4902   -1.0319   -1.1703 H   0  0  0  0  0  0  0  0  0  0  0  0
   -1.8956   -0.1627   -3.0310 H   0  0  0  0  0  0  0  0  0  0  0  0
   -0.9735   -0.5476    1.5936 H   0  0  0  0  0  0  0  0  0  0  0  0
   -1.3746    1.1893    1.6998 H   0  0  0  0  0  0  0  0  0  0  0  0
   -3.0951   -1.2816    1.3129 H   0  0  0  0  0  0  0  0  0  0  0  0
   -3.3719    0.2005    2.2714 H   0  0  0  0  0  0  0  0  0  0  0  0
   -3.6474    0.2692    0.4613 H   0  0  0  0  0  0  0  0  0  0  0  0
  1  2  1  0
  2  3  1  0
  3  4  1  0
  4  5  1  0
  5  6  1  0
  6  7  1  0
  5  8  1  0
  8  9  1  0
  1 10  1  0
  1 11  1  0
  1 12  1  0
  2 13  1  0
  2 14  1  0
  3 15  1  0
  3 16  1  0
  4 17  1  0
  4 18  1  0
  5 19  1  0
  6 20  1  0
  6 21  1  0
  7 22  1  0
  8 23  1  0
  8 24  1  0
  9 25  1  0
  9 26  1  0
  9 27  1  0
M  END
>  <Ligand ID>  (1) 
LIG0002070

>  <Ligand>  (1) 
2-ethylhexan-1-ol

>  <SMILES>  (1) 
CCCCC(CO)CC

>  <CID>  (1) 
7720.0

>  <ChEMBL ID>  (1) 
nan

>  <InChiKey>  (1) 
YIWUKEYIRIRTPP-UHFFFAOYSA-N

>  <InChi>  (1) 
InChI=1S/C8H18O/c1-3-5-6-8(4-2)7-9/h8-9H,3-7H2,1-2H3

>  <IUPAC Name>  (1) 
2-ethylhexan-1-ol

$$$$
