
     RDKit          3D

 38 38  0  0  0  0  0  0  0  0999 V2000
   -4.6872    1.6505    0.8534 C   0  0  0  0  0  0  0  0  0  0  0  0
   -3.4761    1.3324   -0.0275 C   0  0  0  0  0  0  0  0  0  0  0  0
   -3.4009   -0.1562   -0.1278 C   0  0  0  0  0  0  0  0  0  0  0  0
   -2.2748   -0.6842   -0.9545 C   0  0  0  0  0  0  0  0  0  0  0  0
   -0.9160   -0.2455   -0.3948 C   0  0  0  0  0  0  0  0  0  0  0  0
    0.2035   -0.7883   -1.2418 C   0  0  0  0  0  0  0  0  0  0  0  0
    1.5785   -0.3900   -0.7440 C   0  0  0  0  0  0  0  0  0  0  0  0
    1.5687   -0.9606    0.6367 C   0  0  0  0  0  0  0  0  0  0  0  0
    0.8890   -2.2957    0.4487 C   0  0  0  0  0  0  0  0  0  0  0  0
    0.2828   -2.2612   -0.9172 C   0  0  0  0  0  0  0  0  0  0  0  0
   -0.0695   -3.1683   -1.6189 O   0  0  0  0  0  0  0  0  0  0  0  0
    1.8047    1.0948   -0.7905 C   0  0  0  0  0  0  0  0  0  0  0  0
    3.1736    1.3632   -0.2915 C   0  0  0  0  0  0  0  0  0  0  0  0
    3.5295    2.5671   -0.2165 O   0  0  0  0  0  0  0  0  0  0  0  0
    4.0751    0.3985    0.0918 O   0  0  0  0  0  0  0  0  0  0  0  0
    5.3697    0.5945    0.5660 C   0  0  0  0  0  0  0  0  0  0  0  0
   -5.4930    0.8848    0.6878 H   0  0  0  0  0  0  0  0  0  0  0  0
   -5.1262    2.6327    0.6432 H   0  0  0  0  0  0  0  0  0  0  0  0
   -4.3919    1.5900    1.9188 H   0  0  0  0  0  0  0  0  0  0  0  0
   -3.6946    1.7755   -1.0209 H   0  0  0  0  0  0  0  0  0  0  0  0
   -2.5699    1.7937    0.3621 H   0  0  0  0  0  0  0  0  0  0  0  0
   -3.3528   -0.5952    0.8889 H   0  0  0  0  0  0  0  0  0  0  0  0
   -4.3431   -0.5139   -0.5696 H   0  0  0  0  0  0  0  0  0  0  0  0
   -2.3349   -0.4081   -2.0052 H   0  0  0  0  0  0  0  0  0  0  0  0
   -2.2933   -1.7970   -0.8261 H   0  0  0  0  0  0  0  0  0  0  0  0
   -0.9050   -0.6945    0.6403 H   0  0  0  0  0  0  0  0  0  0  0  0
   -0.8913    0.8375   -0.2811 H   0  0  0  0  0  0  0  0  0  0  0  0
    0.0429   -0.6435   -2.3071 H   0  0  0  0  0  0  0  0  0  0  0  0
    2.3244   -0.8950   -1.3528 H   0  0  0  0  0  0  0  0  0  0  0  0
    0.9697   -0.2884    1.3146 H   0  0  0  0  0  0  0  0  0  0  0  0
    2.5880   -1.0766    1.0743 H   0  0  0  0  0  0  0  0  0  0  0  0
    0.0702   -2.4448    1.1736 H   0  0  0  0  0  0  0  0  0  0  0  0
    1.6549   -3.0767    0.5598 H   0  0  0  0  0  0  0  0  0  0  0  0
    1.7926    1.3843   -1.8554 H   0  0  0  0  0  0  0  0  0  0  0  0
    1.0559    1.6481   -0.1885 H   0  0  0  0  0  0  0  0  0  0  0  0
    6.0864   -0.1610    0.1342 H   0  0  0  0  0  0  0  0  0  0  0  0
    5.3456    0.4250    1.6801 H   0  0  0  0  0  0  0  0  0  0  0  0
    5.8148    1.5721    0.2931 H   0  0  0  0  0  0  0  0  0  0  0  0
  1  2  1  0
  2  3  1  0
  3  4  1  0
  4  5  1  0
  5  6  1  0
  6  7  1  0
  7  8  1  0
  8  9  1  0
  9 10  1  0
 10 11  2  0
  7 12  1  0
 12 13  1  0
 13 14  2  0
 13 15  1  0
 15 16  1  0
 10  6  1  0
  1 17  1  0
  1 18  1  0
  1 19  1  0
  2 20  1  0
  2 21  1  0
  3 22  1  0
  3 23  1  0
  4 24  1  0
  4 25  1  0
  5 26  1  0
  5 27  1  0
  6 28  1  0
  7 29  1  0
  8 30  1  0
  8 31  1  0
  9 32  1  0
  9 33  1  0
 12 34  1  0
 12 35  1  0
 16 36  1  0
 16 37  1  0
 16 38  1  0
M  END
>  <Ligand ID>  (1) 
LIG0000317

>  <Ligand>  (1) 
Methyl dihydrojasmonate

>  <SMILES>  (1) 
CCCCCC1C(CCC1=O)CC(=O)OC

>  <CID>  (1) 
102861.0

>  <ChEMBL ID>  (1) 
nan

>  <InChiKey>  (1) 
KVWWIYGFBYDJQC-UHFFFAOYSA-N

>  <InChi>  (1) 
InChI=1S/C13H22O3/c1-3-4-5-6-11-10(7-8-12(11)14)9-13(15)16-2/h10-11H,3-9H2,1-2H3

>  <IUPAC Name>  (1) 
methyl 2-(3-oxo-2-pentylcyclopentyl)acetate

$$$$
