
     RDKit          3D

 15 15  0  0  0  0  0  0  0  0999 V2000
   -2.8256   -0.5227    1.2428 S   0  0  0  0  0  0  0  0  0  0  0  0
   -2.0583    0.4008   -0.1118 C   0  0  0  0  0  0  0  0  0  0  0  0
   -0.5693    0.2801   -0.0969 C   0  0  0  0  0  0  0  0  0  0  0  0
    0.0421   -0.7469   -0.7931 C   0  0  0  0  0  0  0  0  0  0  0  0
    1.4283   -0.8364   -0.7627 C   0  0  0  0  0  0  0  0  0  0  0  0
    2.1803    0.0820   -0.0515 C   0  0  0  0  0  0  0  0  0  0  0  0
    1.5067    1.0916    0.6279 C   0  0  0  0  0  0  0  0  0  0  0  0
    0.1609    1.1908    0.6073 N   0  0  0  0  0  0  0  0  0  0  0  0
   -1.8186   -1.2175    1.8976 H   0  0  0  0  0  0  0  0  0  0  0  0
   -2.3327    1.4755    0.0580 H   0  0  0  0  0  0  0  0  0  0  0  0
   -2.4997    0.1250   -1.0938 H   0  0  0  0  0  0  0  0  0  0  0  0
   -0.5317   -1.4833   -1.3614 H   0  0  0  0  0  0  0  0  0  0  0  0
    1.9580   -1.6314   -1.2977 H   0  0  0  0  0  0  0  0  0  0  0  0
    3.2564   -0.0112   -0.0450 H   0  0  0  0  0  0  0  0  0  0  0  0
    2.1033    1.8036    1.1802 H   0  0  0  0  0  0  0  0  0  0  0  0
  1  2  1  0
  2  3  1  0
  3  4  2  0
  4  5  1  0
  5  6  2  0
  6  7  1  0
  7  8  2  0
  8  3  1  0
  1  9  1  0
  2 10  1  0
  2 11  1  0
  4 12  1  0
  5 13  1  0
  6 14  1  0
  7 15  1  0
M  END
>  <Ligand ID>  (1) 
LIG0005066

>  <Ligand>  (1) 
2-Pyridinemethanethiol

>  <SMILES>  (1) 
SCc1ccccn1

>  <CID>  (1) 
256071.0

>  <ChEMBL ID>  (1) 
nan

>  <InChiKey>  (1) 
SJIIDWBFRZACDQ-UHFFFAOYSA-N

>  <InChi>  (1) 
InChI=1S/C6H7NS/c8-5-6-3-1-2-4-7-6/h1-4,8H,5H2

>  <IUPAC Name>  (1) 
pyridin-2-ylmethanethiol

$$$$
