
     RDKit          3D

149154  0  0  0  0  0  0  0  0999 V2000
    3.6457   -0.3397   -4.0364 C   0  0  0  0  0  0  0  0  0  0  0  0
    2.1785    0.5816   -3.4805 S   0  0  0  0  0  0  0  0  0  0  0  0
    1.8484    0.0519   -1.7514 C   0  0  0  0  0  0  0  0  0  0  0  0
    0.6654    0.7721   -1.1744 C   0  0  0  0  0  0  0  0  0  0  0  0
    0.3032    0.3978    0.2214 C   0  0  1  0  0  0  0  0  0  0  0  0
   -0.0293   -1.0016    0.4768 C   0  0  0  0  0  0  0  0  0  0  0  0
    0.5389   -1.6337    1.4463 O   0  0  0  0  0  0  0  0  0  0  0  0
   -0.9583   -1.8214   -0.2410 N   0  0  0  0  0  0  0  0  0  0  0  0
   -1.0967   -3.2375    0.1874 C   0  0  0  0  0  0  0  0  0  0  0  0
   -1.3263   -3.8910   -1.1830 C   0  0  0  0  0  0  0  0  0  0  0  0
   -2.2459   -2.8824   -1.8636 C   0  0  0  0  0  0  0  0  0  0  0  0
   -1.8408   -1.5265   -1.3240 C   0  0  1  0  0  0  0  0  0  0  0  0
   -3.1218   -0.8884   -0.8232 C   0  0  0  0  0  0  0  0  0  0  0  0
   -3.9276   -0.5019   -1.7094 O   0  0  0  0  0  0  0  0  0  0  0  0
   -3.3018   -0.7847    0.5541 N   0  0  0  0  0  0  0  0  0  0  0  0
   -4.5609   -0.1694    1.1532 C   0  0  2  0  0  0  0  0  0  0  0  0
   -5.6252   -0.9958    0.6021 C   0  0  0  0  0  0  0  0  0  0  0  0
   -5.2239   -2.0022   -0.1139 O   0  0  0  0  0  0  0  0  0  0  0  0
   -7.0217   -0.8992    0.7130 N   0  0  0  0  0  0  0  0  0  0  0  0
   -7.8595   -1.8732    0.0776 C   0  0  2  0  0  0  0  0  0  0  0  0
   -8.3736   -1.4235   -1.2668 C   0  0  0  0  0  0  0  0  0  0  0  0
   -9.1924   -2.2131   -1.8108 O   0  0  0  0  0  0  0  0  0  0  0  0
   -7.9811   -0.2259   -1.8742 N   0  0  0  0  0  0  0  0  0  0  0  0
   -8.4289    0.2824   -3.1445 C   0  0  0  0  0  0  0  0  0  0  0  0
   -9.8126    0.8125   -2.9768 C   0  0  0  0  0  0  0  0  0  0  0  0
  -10.8857    0.0148   -3.2824 C   0  0  0  0  0  0  0  0  0  0  0  0
  -12.1995    0.4379   -3.1359 C   0  0  0  0  0  0  0  0  0  0  0  0
  -12.4526    1.7018   -2.6678 C   0  0  0  0  0  0  0  0  0  0  0  0
  -11.3747    2.5093   -2.3581 C   0  0  0  0  0  0  0  0  0  0  0  0
  -10.0579    2.0931   -2.5021 C   0  0  0  0  0  0  0  0  0  0  0  0
   -9.0369   -2.3601    0.8573 C   0  0  0  0  0  0  0  0  0  0  0  0
  -10.0287   -1.3638    1.2485 C   0  0  0  0  0  0  0  0  0  0  0  0
  -11.1972   -1.1434    0.5085 C   0  0  0  0  0  0  0  0  0  0  0  0
  -11.9087   -0.1618    1.0744 N   0  0  0  0  0  0  0  0  0  0  0  0
  -11.2655    0.2906    2.1707 C   0  0  0  0  0  0  0  0  0  0  0  0
  -10.1035   -0.4565    2.2740 C   0  0  0  0  0  0  0  0  0  0  0  0
   -9.2675   -0.1938    3.3326 C   0  0  0  0  0  0  0  0  0  0  0  0
   -9.6177    0.7877    4.2310 C   0  0  0  0  0  0  0  0  0  0  0  0
  -10.7779    1.5324    4.1255 C   0  0  0  0  0  0  0  0  0  0  0  0
  -11.6257    1.2706    3.0576 C   0  0  0  0  0  0  0  0  0  0  0  0
   -4.4035    1.2484    0.8983 C   0  0  0  0  0  0  0  0  0  0  0  0
   -5.2525    2.3337    1.3174 C   0  0  0  0  0  0  0  0  0  0  0  0
   -4.6329    3.6840    0.7954 C   0  0  0  0  0  0  0  0  0  0  0  0
   -6.6789    2.4772    1.0811 C   0  0  0  0  0  0  0  0  0  0  0  0
    1.2265    0.9681    1.1641 N   0  0  0  0  0  0  0  0  0  0  0  0
    2.4242    0.4016    1.6444 C   0  0  0  0  0  0  0  0  0  0  0  0
    2.8281   -0.7139    1.2570 O   0  0  0  0  0  0  0  0  0  0  0  0
    3.2653    1.1108    2.6457 C   0  0  2  0  0  0  0  0  0  0  0  0
    3.4467    2.5611    2.4548 C   0  0  0  0  0  0  0  0  0  0  0  0
    4.0674    3.0003    1.2026 C   0  0  0  0  0  0  0  0  0  0  0  0
    5.4543    3.0464    1.1076 C   0  0  0  0  0  0  0  0  0  0  0  0
    6.0962    3.4676   -0.0525 C   0  0  0  0  0  0  0  0  0  0  0  0
    5.3421    3.8524   -1.1443 C   0  0  0  0  0  0  0  0  0  0  0  0
    3.9644    3.8201   -1.0867 C   0  0  0  0  0  0  0  0  0  0  0  0
    3.3744    3.3981    0.0798 C   0  0  0  0  0  0  0  0  0  0  0  0
    4.4981    0.4067    2.8783 N   0  0  0  0  0  0  0  0  0  0  0  0
    5.3453   -0.1614    1.9068 C   0  0  0  0  0  0  0  0  0  0  0  0
    5.1659   -0.1437    0.6785 O   0  0  0  0  0  0  0  0  0  0  0  0
    6.5966   -0.8615    2.3806 C   0  0  0  0  0  0  0  0  0  0  0  0
    7.2924   -1.3384    1.2068 N   0  0  0  0  0  0  0  0  0  0  0  0
    6.7478   -2.2659    0.2808 C   0  0  0  0  0  0  0  0  0  0  0  0
    5.5901   -2.7353    0.4465 O   0  0  0  0  0  0  0  0  0  0  0  0
    7.5896   -2.6633   -0.8890 C   0  0  2  0  0  0  0  0  0  0  0  0
    8.8538   -1.9744   -0.8843 N   0  0  0  0  0  0  0  0  0  0  0  0
   10.1160   -2.6004   -0.7349 C   0  0  0  0  0  0  0  0  0  0  0  0
   10.2712   -3.8423   -0.5903 O   0  0  0  0  0  0  0  0  0  0  0  0
   11.3152   -1.7039   -0.7537 C   0  0  2  0  0  0  0  0  0  0  0  0
   12.1366   -1.8994    0.4941 C   0  0  0  0  0  0  0  0  0  0  0  0
   13.3422   -1.0378    0.5511 C   0  0  0  0  0  0  0  0  0  0  0  0
   13.1881    0.2032    1.1484 C   0  0  0  0  0  0  0  0  0  0  0  0
   14.2589    1.0657    1.2408 C   0  0  0  0  0  0  0  0  0  0  0  0
   15.4725    0.6601    0.7261 C   0  0  0  0  0  0  0  0  0  0  0  0
   15.6490   -0.5622    0.1312 C   0  0  0  0  0  0  0  0  0  0  0  0
   14.5716   -1.4277    0.0399 C   0  0  0  0  0  0  0  0  0  0  0  0
   16.5368    1.5662    0.8391 O   0  0  0  0  0  0  0  0  0  0  0  0
   10.9442   -0.3108   -0.9158 N   0  0  0  0  0  0  0  0  0  0  0  0
    6.8105   -2.5437   -2.1625 C   0  0  0  0  0  0  0  0  0  0  0  0
    3.2644   -1.2131   -4.6307 H   0  0  0  0  0  0  0  0  0  0  0  0
    4.3218    0.3038   -4.6369 H   0  0  0  0  0  0  0  0  0  0  0  0
    4.1901   -0.7667   -3.1713 H   0  0  0  0  0  0  0  0  0  0  0  0
    2.7704    0.4076   -1.2011 H   0  0  0  0  0  0  0  0  0  0  0  0
    1.7271   -1.0260   -1.7690 H   0  0  0  0  0  0  0  0  0  0  0  0
    1.0402    1.8621   -1.0783 H   0  0  0  0  0  0  0  0  0  0  0  0
   -0.1823    0.9106   -1.8646 H   0  0  0  0  0  0  0  0  0  0  0  0
   -0.6905    0.9336    0.4491 H   0  0  0  0  0  0  0  0  0  0  0  0
   -1.9585   -3.3800    0.8435 H   0  0  0  0  0  0  0  0  0  0  0  0
   -0.1975   -3.6170    0.6670 H   0  0  0  0  0  0  0  0  0  0  0  0
   -1.8223   -4.8654   -1.0047 H   0  0  0  0  0  0  0  0  0  0  0  0
   -0.3465   -3.9549   -1.6750 H   0  0  0  0  0  0  0  0  0  0  0  0
   -2.1360   -2.9335   -2.9701 H   0  0  0  0  0  0  0  0  0  0  0  0
   -3.2790   -3.1406   -1.6362 H   0  0  0  0  0  0  0  0  0  0  0  0
   -1.4110   -0.9062   -2.1376 H   0  0  0  0  0  0  0  0  0  0  0  0
   -2.5583   -1.1315    1.1867 H   0  0  0  0  0  0  0  0  0  0  0  0
   -4.3883   -0.4106    2.2566 H   0  0  0  0  0  0  0  0  0  0  0  0
   -7.4281   -0.1498    1.2459 H   0  0  0  0  0  0  0  0  0  0  0  0
   -7.2125   -2.7921   -0.1144 H   0  0  0  0  0  0  0  0  0  0  0  0
   -7.2776    0.3612   -1.3586 H   0  0  0  0  0  0  0  0  0  0  0  0
   -7.7367    1.0329   -3.5284 H   0  0  0  0  0  0  0  0  0  0  0  0
   -8.4384   -0.5629   -3.8670 H   0  0  0  0  0  0  0  0  0  0  0  0
  -10.7707   -0.9981   -3.6648 H   0  0  0  0  0  0  0  0  0  0  0  0
  -13.0369   -0.2212   -3.3906 H   0  0  0  0  0  0  0  0  0  0  0  0
  -13.4634    2.0649   -2.5399 H   0  0  0  0  0  0  0  0  0  0  0  0
  -11.6187    3.5054   -1.9879 H   0  0  0  0  0  0  0  0  0  0  0  0
   -9.2288    2.7522   -2.2460 H   0  0  0  0  0  0  0  0  0  0  0  0
   -8.6904   -2.9003    1.7906 H   0  0  0  0  0  0  0  0  0  0  0  0
   -9.4984   -3.1837    0.2291 H   0  0  0  0  0  0  0  0  0  0  0  0
  -11.5028   -1.6761   -0.3922 H   0  0  0  0  0  0  0  0  0  0  0  0
  -12.8208    0.2062    0.7326 H   0  0  0  0  0  0  0  0  0  0  0  0
   -8.3654   -0.7856    3.3968 H   0  0  0  0  0  0  0  0  0  0  0  0
   -8.9710    1.0032    5.0688 H   0  0  0  0  0  0  0  0  0  0  0  0
  -11.0515    2.3090    4.8341 H   0  0  0  0  0  0  0  0  0  0  0  0
  -12.5564    1.8193    2.9188 H   0  0  0  0  0  0  0  0  0  0  0  0
   -4.2872    1.3457   -0.2625 H   0  0  0  0  0  0  0  0  0  0  0  0
   -3.2983    1.4898    1.1669 H   0  0  0  0  0  0  0  0  0  0  0  0
   -5.0867    2.4782    2.4464 H   0  0  0  0  0  0  0  0  0  0  0  0
   -5.0572    3.8461   -0.2268 H   0  0  0  0  0  0  0  0  0  0  0  0
   -3.5537    3.5380    0.6787 H   0  0  0  0  0  0  0  0  0  0  0  0
   -4.9519    4.5163    1.4181 H   0  0  0  0  0  0  0  0  0  0  0  0
   -7.0758    2.0160    0.1644 H   0  0  0  0  0  0  0  0  0  0  0  0
   -7.3104    2.0684    1.9318 H   0  0  0  0  0  0  0  0  0  0  0  0
   -7.0435    3.5417    1.0223 H   0  0  0  0  0  0  0  0  0  0  0  0
    0.9997    1.9372    1.5612 H   0  0  0  0  0  0  0  0  0  0  0  0
    2.6391    0.9997    3.6134 H   0  0  0  0  0  0  0  0  0  0  0  0
    3.9832    3.0330    3.3230 H   0  0  0  0  0  0  0  0  0  0  0  0
    2.4171    3.0309    2.4935 H   0  0  0  0  0  0  0  0  0  0  0  0
    6.0700    2.7542    1.9343 H   0  0  0  0  0  0  0  0  0  0  0  0
    7.1783    3.4863   -0.0794 H   0  0  0  0  0  0  0  0  0  0  0  0
    5.8047    4.1872   -2.0667 H   0  0  0  0  0  0  0  0  0  0  0  0
    3.3431    4.1194   -1.9408 H   0  0  0  0  0  0  0  0  0  0  0  0
    2.2975    3.3787    0.1487 H   0  0  0  0  0  0  0  0  0  0  0  0
    4.8174    0.3007    3.8884 H   0  0  0  0  0  0  0  0  0  0  0  0
    7.2331   -0.2071    2.9829 H   0  0  0  0  0  0  0  0  0  0  0  0
    6.2595   -1.7313    2.9918 H   0  0  0  0  0  0  0  0  0  0  0  0
    8.2552   -0.9803    1.0282 H   0  0  0  0  0  0  0  0  0  0  0  0
    7.8408   -3.7576   -0.7518 H   0  0  0  0  0  0  0  0  0  0  0  0
    8.8092   -0.9238   -1.0052 H   0  0  0  0  0  0  0  0  0  0  0  0
   11.8918   -1.9756   -1.6660 H   0  0  0  0  0  0  0  0  0  0  0  0
   12.4176   -2.9893    0.5149 H   0  0  0  0  0  0  0  0  0  0  0  0
   11.4739   -1.7341    1.3730 H   0  0  0  0  0  0  0  0  0  0  0  0
   12.2346    0.5151    1.5481 H   0  0  0  0  0  0  0  0  0  0  0  0
   14.1340    2.0335    1.7064 H   0  0  0  0  0  0  0  0  0  0  0  0
   16.6264   -0.8191   -0.2520 H   0  0  0  0  0  0  0  0  0  0  0  0
   14.6571   -2.4045   -0.4185 H   0  0  0  0  0  0  0  0  0  0  0  0
   17.2003    1.5860    0.0728 H   0  0  0  0  0  0  0  0  0  0  0  0
   11.8051    0.2677   -0.8921 H   0  0  0  0  0  0  0  0  0  0  0  0
   10.4911   -0.1427   -1.8341 H   0  0  0  0  0  0  0  0  0  0  0  0
    6.5028   -1.4929   -2.3513 H   0  0  0  0  0  0  0  0  0  0  0  0
    7.4097   -2.9744   -2.9962 H   0  0  0  0  0  0  0  0  0  0  0  0
    5.9309   -3.2256   -2.0555 H   0  0  0  0  0  0  0  0  0  0  0  0
  1  2  1  0
  2  3  1  0
  3  4  1  0
  4  5  1  0
  5  6  1  0
  6  7  2  0
  6  8  1  0
  8  9  1  0
  9 10  1  0
 10 11  1  0
 11 12  1  0
 12 13  1  0
 13 14  2  0
 13 15  1  0
 15 16  1  0
 16 17  1  0
 17 18  2  0
 17 19  1  0
 19 20  1  0
 20 21  1  0
 21 22  2  0
 21 23  1  0
 23 24  1  0
 24 25  1  0
 25 26  2  0
 26 27  1  0
 27 28  2  0
 28 29  1  0
 29 30  2  0
 20 31  1  0
 31 32  1  0
 32 33  2  0
 33 34  1  0
 34 35  1  0
 35 36  2  0
 36 37  1  0
 37 38  2  0
 38 39  1  0
 39 40  2  0
 16 41  1  0
 41 42  1  0
 42 43  1  0
 42 44  1  0
  5 45  1  0
 45 46  1  0
 46 47  2  0
 46 48  1  0
 48 49  1  0
 49 50  1  0
 50 51  2  0
 51 52  1  0
 52 53  2  0
 53 54  1  0
 54 55  2  0
 48 56  1  0
 56 57  1  0
 57 58  2  0
 57 59  1  0
 59 60  1  0
 60 61  1  0
 61 62  2  0
 61 63  1  0
 63 64  1  0
 64 65  1  0
 65 66  2  0
 65 67  1  0
 67 68  1  0
 68 69  1  0
 69 70  2  0
 70 71  1  0
 71 72  2  0
 72 73  1  0
 73 74  2  0
 72 75  1  0
 67 76  1  0
 63 77  1  0
 12  8  1  0
 30 25  1  0
 36 32  1  0
 55 50  1  0
 74 69  1  0
 40 35  1  0
  1 78  1  0
  1 79  1  0
  1 80  1  0
  3 81  1  0
  3 82  1  0
  4 83  1  0
  4 84  1  0
  5 85  1  1
  9 86  1  0
  9 87  1  0
 10 88  1  0
 10 89  1  0
 11 90  1  0
 11 91  1  0
 12 92  1  6
 15 93  1  0
 16 94  1  1
 19 95  1  0
 20 96  1  6
 23 97  1  0
 24 98  1  0
 24 99  1  0
 26100  1  0
 27101  1  0
 28102  1  0
 29103  1  0
 30104  1  0
 31105  1  0
 31106  1  0
 33107  1  0
 34108  1  0
 37109  1  0
 38110  1  0
 39111  1  0
 40112  1  0
 41113  1  0
 41114  1  0
 42115  1  0
 43116  1  0
 43117  1  0
 43118  1  0
 44119  1  0
 44120  1  0
 44121  1  0
 45122  1  0
 48123  1  1
 49124  1  0
 49125  1  0
 51126  1  0
 52127  1  0
 53128  1  0
 54129  1  0
 55130  1  0
 56131  1  0
 59132  1  0
 59133  1  0
 60134  1  0
 63135  1  1
 64136  1  0
 67137  1  6
 68138  1  0
 68139  1  0
 70140  1  0
 71141  1  0
 73142  1  0
 74143  1  0
 75144  1  0
 76145  1  0
 76146  1  0
 77147  1  0
 77148  1  0
 77149  1  0
M  END
>  <Ligand ID>  (1) 
LIG0005380

>  <Ligand>  (1) 
CHEMBL448998

>  <SMILES>  (1) 
CSCC[C@@H](C(=O)N1CCC[C@H]1C(=O)N[C@H](C(=O)N[C@H](C(=O)NCc1ccccc1)Cc1c[nH]c2c1cccc2)CC(C)C)NC(=O)[C@H](Cc1ccccc1)NC(=O)CNC(=O)[C@H](NC(=O)[C@H](Cc1ccc(cc1)O)N)C

>  <CID>  (1) 
25129135.0

>  <ChEMBL ID>  (1) 
nan

>  <InChiKey>  (1) 
VUSRUVIDWSRKBU-POSUKJBFSA-N

>  <InChi>  (1) 
InChI=1S/C57H72N10O9S/c1-35(2)28-46(54(73)65-48(53(72)60-32-39-16-9-6-10-17-39)31-40-33-59-44-19-12-11-18-42(40)44)66-56(75)49-20-13-26-67(49)57(76)45(25-27-77-4)64-55(74)47(30-37-14-7-5-8-15-37)63-50(69)34-61-51(70)36(3)62-52(71)43(58)29-38-21-23-41(68)24-22-38/h5-12,14-19,21-24,33,35-36,43,45-49,59,68H,13,20,25-32,34,58H2,1-4H3,(H,60,72)(H,61,70)(H,62,71)(H,63,69)(H,64,74)(H,65,73)(H,66,75)/t36-,43+,45+,46+,47+,48+,49+/m1/s1

>  <IUPAC Name>  (1) 
(2S)-1-[(2S)-2-[[(2S)-2-[[2-[[(2R)-2-[[(2S)-2-amino-3-(4-hydroxyphenyl)propanoyl]amino]propanoyl]amino]acetyl]amino]-3-phenylpropanoyl]amino]-4-methylsulfanylbutanoyl]-N-[(2S)-1-[[(2S)-1-(benzylamino)-3-(1H-indol-3-yl)-1-oxopropan-2-yl]amino]-4-methyl-1-oxopentan-2-yl]pyrrolidine-2-carboxamide

$$$$
