
     RDKit          3D

 35 37  0  0  0  0  0  0  0  0999 V2000
    0.8854   -0.7862   -2.5394 C   0  0  0  0  0  0  0  0  0  0  0  0
    1.0420    0.0846   -1.3082 C   0  0  2  0  0  0  0  0  0  0  0  0
    2.2098   -0.3705   -0.4932 C   0  0  0  0  0  0  0  0  0  0  0  0
    2.1234   -0.7664    0.7125 N   0  0  0  0  0  0  0  0  0  0  0  0
    3.4360   -1.1339    1.2037 C   0  0  0  0  0  0  0  0  0  0  0  0
    4.3687   -0.4410    0.2475 C   0  0  0  0  0  0  0  0  0  0  0  0
    3.5492   -0.4139   -0.9684 N   0  0  0  0  0  0  0  0  0  0  0  0
   -0.1478    0.0098   -0.5870 O   0  0  0  0  0  0  0  0  0  0  0  0
   -1.0380    1.0059   -0.3112 C   0  0  0  0  0  0  0  0  0  0  0  0
   -0.9174    2.3191   -0.7116 C   0  0  0  0  0  0  0  0  0  0  0  0
   -1.8652    3.2530   -0.3862 C   0  0  0  0  0  0  0  0  0  0  0  0
   -2.9827    2.9162    0.3579 C   0  0  0  0  0  0  0  0  0  0  0  0
   -3.1215    1.6065    0.7682 C   0  0  0  0  0  0  0  0  0  0  0  0
   -2.1599    0.6878    0.4308 C   0  0  0  0  0  0  0  0  0  0  0  0
   -2.3493   -0.7251    0.8968 C   0  0  0  0  0  0  0  0  0  0  0  0
   -2.1249   -1.7515    0.0094 C   0  0  0  0  0  0  0  0  0  0  0  0
   -2.4575   -3.2606    0.9485 S   0  0  0  0  0  0  0  0  0  0  0  0
   -2.8609   -2.3724    2.4249 C   0  0  0  0  0  0  0  0  0  0  0  0
   -2.7250   -1.0242    2.1319 C   0  0  0  0  0  0  0  0  0  0  0  0
    1.8585   -1.0199   -3.0271 H   0  0  0  0  0  0  0  0  0  0  0  0
    0.2575   -0.2702   -3.2936 H   0  0  0  0  0  0  0  0  0  0  0  0
    0.4293   -1.7627   -2.2653 H   0  0  0  0  0  0  0  0  0  0  0  0
    1.2183    1.1090   -1.6691 H   0  0  0  0  0  0  0  0  0  0  0  0
    3.5927   -0.8232    2.2550 H   0  0  0  0  0  0  0  0  0  0  0  0
    3.5463   -2.2523    1.0948 H   0  0  0  0  0  0  0  0  0  0  0  0
    5.3100   -1.0086    0.1017 H   0  0  0  0  0  0  0  0  0  0  0  0
    4.5131    0.5990    0.5709 H   0  0  0  0  0  0  0  0  0  0  0  0
    3.9241   -0.4258   -1.9229 H   0  0  0  0  0  0  0  0  0  0  0  0
   -0.0717    2.6207   -1.2864 H   0  0  0  0  0  0  0  0  0  0  0  0
   -1.7662    4.2830   -0.7028 H   0  0  0  0  0  0  0  0  0  0  0  0
   -3.7501    3.6311    0.6318 H   0  0  0  0  0  0  0  0  0  0  0  0
   -3.9988    1.3467    1.3512 H   0  0  0  0  0  0  0  0  0  0  0  0
   -1.8154   -1.7338   -1.0367 H   0  0  0  0  0  0  0  0  0  0  0  0
   -3.1798   -2.8490    3.4456 H   0  0  0  0  0  0  0  0  0  0  0  0
   -2.9322   -0.2814    2.9258 H   0  0  0  0  0  0  0  0  0  0  0  0
  1  2  1  0
  2  3  1  0
  3  4  2  0
  4  5  1  0
  5  6  1  0
  6  7  1  0
  2  8  1  0
  8  9  1  0
  9 10  2  0
 10 11  1  0
 11 12  2  0
 12 13  1  0
 13 14  2  0
 14 15  1  0
 15 16  2  0
 16 17  1  0
 17 18  1  0
 18 19  2  0
  7  3  1  0
 14  9  1  0
 19 15  1  0
  1 20  1  0
  1 21  1  0
  1 22  1  0
  2 23  1  6
  5 24  1  0
  5 25  1  0
  6 26  1  0
  6 27  1  0
  7 28  1  0
 10 29  1  0
 11 30  1  0
 12 31  1  0
 13 32  1  0
 16 33  1  0
 18 34  1  0
 19 35  1  0
M  END
>  <Ligand ID>  (1) 
LIG0005446

>  <Ligand>  (1) 
CHEMBL1276247

>  <SMILES>  (1) 
C[C@H](C1=NCCN1)Oc1ccccc1c1cscc1

>  <CID>  (1) 
49836306.0

>  <ChEMBL ID>  (1) 
nan

>  <InChiKey>  (1) 
IAIZHDGEGFGNMO-LLVKDONJSA-N

>  <InChi>  (1) 
InChI=1S/C15H16N2OS/c1-11(15-16-7-8-17-15)18-14-5-3-2-4-13(14)12-6-9-19-10-12/h2-6,9-11H,7-8H2,1H3,(H,16,17)/t11-/m1/s1

>  <IUPAC Name>  (1) 
2-[(1R)-1-(2-thiophen-3-ylphenoxy)ethyl]-4,5-dihydro-1H-imidazole

$$$$
