
     RDKit          3D

 61 65  0  0  0  0  0  0  0  0999 V2000
    8.5960   -1.9126    2.3773 N   0  0  0  0  0  0  0  0  0  0  0  0
    8.5019   -0.4977    2.4346 C   0  0  0  0  0  0  0  0  0  0  0  0
    9.4764    0.1747    2.8605 O   0  0  0  0  0  0  0  0  0  0  0  0
    7.2757    0.2338    2.0036 C   0  0  0  0  0  0  0  0  0  0  0  0
    6.3364   -0.7116    1.5732 O   0  0  0  0  0  0  0  0  0  0  0  0
    5.0770   -0.4455    1.0983 C   0  0  0  0  0  0  0  0  0  0  0  0
    4.3010   -1.5394    0.7219 C   0  0  0  0  0  0  0  0  0  0  0  0
    3.0334   -1.3203    0.2403 C   0  0  0  0  0  0  0  0  0  0  0  0
    2.4778   -0.0663    0.1062 C   0  0  0  0  0  0  0  0  0  0  0  0
    3.2514    1.0056    0.4810 C   0  0  0  0  0  0  0  0  0  0  0  0
    4.5398    0.8195    0.9725 C   0  0  0  0  0  0  0  0  0  0  0  0
    1.1358    0.0680   -0.3798 N   0  0  0  0  0  0  0  0  0  0  0  0
    0.7650    0.9912   -1.3898 C   0  0  0  0  0  0  0  0  0  0  0  0
    1.6738    1.7903   -2.0424 C   0  0  0  0  0  0  0  0  0  0  0  0
    1.2769    2.7083   -3.0232 C   0  0  0  0  0  0  0  0  0  0  0  0
    2.1456    3.4249   -3.5990 O   0  0  0  0  0  0  0  0  0  0  0  0
   -0.0185    2.8310   -3.3545 N   0  0  0  0  0  0  0  0  0  0  0  0
   -0.9141    2.0595   -2.7282 C   0  0  0  0  0  0  0  0  0  0  0  0
   -0.5580    1.1334   -1.7454 C   0  0  0  0  0  0  0  0  0  0  0  0
   -1.5849    0.4075   -1.1849 C   0  0  0  0  0  0  0  0  0  0  0  0
   -2.9042    0.5771   -1.5664 C   0  0  0  0  0  0  0  0  0  0  0  0
   -3.2550    1.4917   -2.5369 C   0  0  0  0  0  0  0  0  0  0  0  0
   -2.2426    2.2287   -3.1108 C   0  0  0  0  0  0  0  0  0  0  0  0
   -3.9595   -0.2412   -0.9149 C   0  0  0  0  0  0  0  0  0  0  0  0
   -4.4821    0.5505    0.2249 C   0  0  0  0  0  0  0  0  0  0  0  0
   -5.8270    0.9322    0.3111 C   0  0  0  0  0  0  0  0  0  0  0  0
   -6.3200    1.6743    1.3470 C   0  0  0  0  0  0  0  0  0  0  0  0
   -5.5018    2.0889    2.3729 C   0  0  0  0  0  0  0  0  0  0  0  0
   -4.1831    1.7359    2.3233 C   0  0  0  0  0  0  0  0  0  0  0  0
   -3.6862    0.9843    1.2729 C   0  0  0  0  0  0  0  0  0  0  0  0
   -6.2099    3.0337    3.6592 Cl  0  0  0  0  0  0  0  0  0  0  0  0
   -3.5898   -1.6136   -0.6132 C   0  0  0  0  0  0  0  0  0  0  0  0
   -3.5586   -2.5240   -1.6781 C   0  0  0  0  0  0  0  0  0  0  0  0
   -3.2273   -3.8497   -1.4897 C   0  0  0  0  0  0  0  0  0  0  0  0
   -2.9116   -4.3300   -0.2308 C   0  0  0  0  0  0  0  0  0  0  0  0
   -2.9357   -3.4540    0.8307 C   0  0  0  0  0  0  0  0  0  0  0  0
   -3.2705   -2.1306    0.6183 C   0  0  0  0  0  0  0  0  0  0  0  0
   -2.4914   -6.0155    0.0021 Cl  0  0  0  0  0  0  0  0  0  0  0  0
    7.9670   -2.4650    1.7728 H   0  0  0  0  0  0  0  0  0  0  0  0
    9.3077   -2.4111    2.9504 H   0  0  0  0  0  0  0  0  0  0  0  0
    6.8470    0.8400    2.8189 H   0  0  0  0  0  0  0  0  0  0  0  0
    7.6126    0.9109    1.1758 H   0  0  0  0  0  0  0  0  0  0  0  0
    4.6772   -2.5539    0.8018 H   0  0  0  0  0  0  0  0  0  0  0  0
    2.4429   -2.2006   -0.0493 H   0  0  0  0  0  0  0  0  0  0  0  0
    2.9019    2.0246    0.4307 H   0  0  0  0  0  0  0  0  0  0  0  0
    5.1535    1.6781    1.2698 H   0  0  0  0  0  0  0  0  0  0  0  0
    0.4522   -0.5789    0.0766 H   0  0  0  0  0  0  0  0  0  0  0  0
    2.7159    1.7439   -1.8492 H   0  0  0  0  0  0  0  0  0  0  0  0
   -0.3078    3.5082   -4.0773 H   0  0  0  0  0  0  0  0  0  0  0  0
   -1.3864   -0.3121   -0.4345 H   0  0  0  0  0  0  0  0  0  0  0  0
   -4.2913    1.6090   -2.8207 H   0  0  0  0  0  0  0  0  0  0  0  0
   -2.5284    2.9411   -3.8688 H   0  0  0  0  0  0  0  0  0  0  0  0
   -4.8127   -0.3030   -1.6536 H   0  0  0  0  0  0  0  0  0  0  0  0
   -6.4858    0.6031   -0.5072 H   0  0  0  0  0  0  0  0  0  0  0  0
   -7.3721    1.9278    1.3391 H   0  0  0  0  0  0  0  0  0  0  0  0
   -3.5277    2.0642    3.1388 H   0  0  0  0  0  0  0  0  0  0  0  0
   -2.6311    0.7588    1.3082 H   0  0  0  0  0  0  0  0  0  0  0  0
   -3.7926   -2.2258   -2.6914 H   0  0  0  0  0  0  0  0  0  0  0  0
   -3.2074   -4.5413   -2.3223 H   0  0  0  0  0  0  0  0  0  0  0  0
   -2.6874   -3.8220    1.8345 H   0  0  0  0  0  0  0  0  0  0  0  0
   -3.2796   -1.4892    1.4838 H   0  0  0  0  0  0  0  0  0  0  0  0
  1  2  1  0
  2  3  2  0
  2  4  1  0
  4  5  1  0
  5  6  1  0
  6  7  2  0
  7  8  1  0
  8  9  2  0
  9 10  1  0
 10 11  2  0
  9 12  1  0
 12 13  1  0
 13 14  2  0
 14 15  1  0
 15 16  2  0
 15 17  1  0
 17 18  1  0
 18 19  2  0
 19 20  1  0
 20 21  2  0
 21 22  1  0
 22 23  2  0
 21 24  1  0
 24 25  1  0
 25 26  2  0
 26 27  1  0
 27 28  2  0
 28 29  1  0
 29 30  2  0
 28 31  1  0
 24 32  1  0
 32 33  2  0
 33 34  1  0
 34 35  2  0
 35 36  1  0
 36 37  2  0
 35 38  1  0
 11  6  1  0
 19 13  1  0
 30 25  1  0
 37 32  1  0
 23 18  1  0
  1 39  1  0
  1 40  1  0
  4 41  1  0
  4 42  1  0
  7 43  1  0
  8 44  1  0
 10 45  1  0
 11 46  1  0
 12 47  1  0
 14 48  1  0
 17 49  1  0
 20 50  1  0
 22 51  1  0
 23 52  1  0
 24 53  1  0
 26 54  1  0
 27 55  1  0
 29 56  1  0
 30 57  1  0
 33 58  1  0
 34 59  1  0
 36 60  1  0
 37 61  1  0
M  END
>  <Ligand ID>  (1) 
LIG0005896

>  <Ligand>  (1) 
CHEMBL3955509

>  <SMILES>  (1) 
NC(=O)COc1ccc(cc1)Nc1cc(=O)[nH]c2c1cc(cc2)C(c1ccc(cc1)Cl)c1ccc(cc1)Cl

>  <CID>  (1) 
118323996.0

>  <ChEMBL ID>  (1) 
nan

>  <InChiKey>  (1) 
OZJAMTSVRBHDCN-UHFFFAOYSA-N

>  <InChi>  (1) 
InChI=1S/C30H23Cl2N3O3/c31-21-6-1-18(2-7-21)30(19-3-8-22(32)9-4-19)20-5-14-26-25(15-20)27(16-29(37)35-26)34-23-10-12-24(13-11-23)38-17-28(33)36/h1-16,30H,17H2,(H2,33,36)(H2,34,35,37)

>  <IUPAC Name>  (1) 
2-[4-[[6-[bis(4-chlorophenyl)methyl]-2-oxo-1H-quinolin-4-yl]amino]phenoxy]acetamide

$$$$
