
     RDKit          3D

 47 50  0  0  0  0  0  0  0  0999 V2000
    7.2780   -0.7372   -2.6368 C   0  0  0  0  0  0  0  0  0  0  0  0
    6.1200   -0.0124   -2.0654 C   0  0  0  0  0  0  0  0  0  0  0  0
    5.7910    1.1552   -2.3881 O   0  0  0  0  0  0  0  0  0  0  0  0
    5.3530   -0.6884   -1.1037 O   0  0  0  0  0  0  0  0  0  0  0  0
    4.2540   -0.0701   -0.5255 C   0  0  0  0  0  0  0  0  0  0  0  0
    2.9824   -0.1231   -1.0471 C   0  0  0  0  0  0  0  0  0  0  0  0
    1.9184    0.5218   -0.4151 C   0  0  0  0  0  0  0  0  0  0  0  0
    2.1855    1.2128    0.7485 C   0  0  0  0  0  0  0  0  0  0  0  0
    3.4464    1.2927    1.3083 C   0  0  0  0  0  0  0  0  0  0  0  0
    4.4726    0.6339    0.6416 C   0  0  0  0  0  0  0  0  0  0  0  0
    1.1002    1.9416    1.5028 C   0  0  0  0  0  0  0  0  0  0  0  0
    0.4180    0.7186    2.6589 S   0  0  0  0  0  0  0  0  0  0  0  0
   -0.3938   -0.5270    1.6680 C   0  0  0  0  0  0  0  0  0  0  0  0
    0.2232   -1.6145    1.1753 N   0  0  0  0  0  0  0  0  0  0  0  0
   -0.6749   -2.2903    0.5163 N   0  0  0  0  0  0  0  0  0  0  0  0
   -1.8718   -1.6378    0.5849 C   0  0  0  0  0  0  0  0  0  0  0  0
   -1.7025   -0.5210    1.3120 N   0  0  0  0  0  0  0  0  0  0  0  0
   -2.7400    0.4112    1.6106 C   0  0  0  0  0  0  0  0  0  0  0  0
   -2.9414    1.4987    0.6632 C   0  0  0  0  0  0  0  0  0  0  0  0
   -2.4717    2.7589    0.5619 C   0  0  0  0  0  0  0  0  0  0  0  0
   -2.8511    3.5354   -0.4468 C   0  0  0  0  0  0  0  0  0  0  0  0
   -3.7362    2.9963   -1.3709 C   0  0  0  0  0  0  0  0  0  0  0  0
   -4.0614    1.2687   -0.7807 S   0  0  0  0  0  0  0  0  0  0  0  0
   -3.0630   -2.1660   -0.0656 C   0  0  0  0  0  0  0  0  0  0  0  0
   -4.0880   -2.7894    0.6144 C   0  0  0  0  0  0  0  0  0  0  0  0
   -5.1540   -3.2406   -0.1437 C   0  0  0  0  0  0  0  0  0  0  0  0
   -5.1746   -3.0683   -1.5031 C   0  0  0  0  0  0  0  0  0  0  0  0
   -4.1272   -2.4344   -2.1738 C   0  0  0  0  0  0  0  0  0  0  0  0
   -3.1124   -2.0091   -1.4209 N   0  0  0  0  0  0  0  0  0  0  0  0
    7.7688   -1.3080   -1.8213 H   0  0  0  0  0  0  0  0  0  0  0  0
    8.0564   -0.0667   -3.0588 H   0  0  0  0  0  0  0  0  0  0  0  0
    6.9090   -1.4422   -3.3860 H   0  0  0  0  0  0  0  0  0  0  0  0
    2.8336   -0.6807   -1.9621 H   0  0  0  0  0  0  0  0  0  0  0  0
    0.9167    0.4864   -0.8150 H   0  0  0  0  0  0  0  0  0  0  0  0
    3.6261    1.8336    2.2086 H   0  0  0  0  0  0  0  0  0  0  0  0
    5.4809    0.6938    1.0820 H   0  0  0  0  0  0  0  0  0  0  0  0
    0.3651    2.2259    0.7362 H   0  0  0  0  0  0  0  0  0  0  0  0
    1.5170    2.8194    2.0372 H   0  0  0  0  0  0  0  0  0  0  0  0
   -2.5524    0.8090    2.6274 H   0  0  0  0  0  0  0  0  0  0  0  0
   -3.7021   -0.1601    1.6980 H   0  0  0  0  0  0  0  0  0  0  0  0
   -1.7564    3.1359    1.3497 H   0  0  0  0  0  0  0  0  0  0  0  0
   -2.5080    4.5778   -0.5955 H   0  0  0  0  0  0  0  0  0  0  0  0
   -4.1997    3.4002   -2.2707 H   0  0  0  0  0  0  0  0  0  0  0  0
   -4.0261   -2.9020    1.6871 H   0  0  0  0  0  0  0  0  0  0  0  0
   -5.9857   -3.7364    0.3340 H   0  0  0  0  0  0  0  0  0  0  0  0
   -5.9975   -3.4133   -2.1140 H   0  0  0  0  0  0  0  0  0  0  0  0
   -4.1245   -2.2888   -3.2424 H   0  0  0  0  0  0  0  0  0  0  0  0
  1  2  1  0
  2  3  2  0
  2  4  1  0
  4  5  1  0
  5  6  2  0
  6  7  1  0
  7  8  2  0
  8  9  1  0
  9 10  2  0
  8 11  1  0
 11 12  1  0
 12 13  1  0
 13 14  2  0
 14 15  1  0
 15 16  2  0
 16 17  1  0
 17 18  1  0
 18 19  1  0
 19 20  2  0
 20 21  1  0
 21 22  2  0
 22 23  1  0
 16 24  1  0
 24 25  2  0
 25 26  1  0
 26 27  2  0
 27 28  1  0
 28 29  2  0
 10  5  1  0
 17 13  1  0
 23 19  1  0
 29 24  1  0
  1 30  1  0
  1 31  1  0
  1 32  1  0
  6 33  1  0
  7 34  1  0
  9 35  1  0
 10 36  1  0
 11 37  1  0
 11 38  1  0
 18 39  1  0
 18 40  1  0
 20 41  1  0
 21 42  1  0
 22 43  1  0
 25 44  1  0
 26 45  1  0
 27 46  1  0
 28 47  1  0
M  END
>  <Ligand ID>  (1) 
LIG0003365

>  <Ligand>  (1) 
KUC104196N

>  <SMILES>  (1) 
CC(=O)Oc1ccc(cc1)CSc1nnc(n1Cc1cccs1)c1ccccn1

>  <CID>  (1) 
44620931.0

>  <ChEMBL ID>  (1) 
nan

>  <InChiKey>  (1) 
SBWHTHVHPNGIRM-UHFFFAOYSA-N

>  <InChi>  (1) 
InChI=1S/C21H18N4O2S2/c1-15(26)27-17-9-7-16(8-10-17)14-29-21-24-23-20(19-6-2-3-11-22-19)25(21)13-18-5-4-12-28-18/h2-12H,13-14H2,1H3

>  <IUPAC Name>  (1) 
[4-[[5-pyridin-2-yl-4-(thiophen-2-ylmethyl)-1,2,4-triazol-3-yl]sulfanylmethyl]phenyl] acetate

$$$$
