
     RDKit          3D

 62 66  0  0  0  0  0  0  0  0999 V2000
   -3.6405    0.1155   -2.3966 O   0  0  0  0  0  0  0  0  0  0  0  0
   -4.0073   -0.4362   -1.1552 C   0  0  0  0  0  0  0  0  0  0  0  0
   -3.2863    0.2243   -0.0196 C   0  0  1  0  0  0  0  0  0  0  0  0
   -1.8672    0.0511   -0.1983 N   0  0  0  0  0  0  0  0  0  0  0  0
   -1.2234   -1.2189   -0.2216 C   0  0  0  0  0  0  0  0  0  0  0  0
   -1.8969   -2.3735   -0.0622 N   0  0  0  0  0  0  0  0  0  0  0  0
   -1.3305   -3.5934   -0.0769 C   0  0  0  0  0  0  0  0  0  0  0  0
   -2.1134   -4.7824    0.1001 N   0  0  0  0  0  0  0  0  0  0  0  0
    0.0331   -3.6941   -0.2668 C   0  0  0  0  0  0  0  0  0  0  0  0
    0.7164   -2.4952   -0.4300 C   0  0  0  0  0  0  0  0  0  0  0  0
    0.1066   -1.3238   -0.4065 N   0  0  0  0  0  0  0  0  0  0  0  0
    2.0009   -2.8535   -0.5945 N   0  0  0  0  0  0  0  0  0  0  0  0
    2.1378   -4.1922   -0.5412 C   0  0  0  0  0  0  0  0  0  0  0  0
    0.8919   -4.7081   -0.3346 N   0  0  0  0  0  0  0  0  0  0  0  0
    3.0748   -1.9366   -0.7980 C   0  0  2  0  0  0  0  0  0  0  0  0
    3.2471   -0.9378    0.3570 C   0  0  0  0  0  0  0  0  0  0  0  0
    4.1802    0.0361   -0.3715 C   0  0  1  0  0  0  0  0  0  0  0  0
    3.3764    0.3229   -1.6050 C   0  0  2  0  0  0  0  0  0  0  0  0
    2.9741   -1.0855   -2.0299 C   0  0  1  0  0  0  0  0  0  0  0  0
    3.9118   -1.4723   -3.0119 O   0  0  0  0  0  0  0  0  0  0  0  0
    4.1261    0.9408   -2.6000 O   0  0  0  0  0  0  0  0  0  0  0  0
    4.5051    1.1845    0.4153 N   0  0  0  0  0  0  0  0  0  0  0  0
    3.8143    2.3044    0.5466 N   0  0  0  0  0  0  0  0  0  0  0  0
    4.4785    3.1228    1.3801 C   0  0  0  0  0  0  0  0  0  0  0  0
    5.6380    2.4994    1.7960 C   0  0  0  0  0  0  0  0  0  0  0  0
    5.6356    1.2664    1.1701 C   0  0  0  0  0  0  0  0  0  0  0  0
    6.7040    2.9584    2.7011 C   0  0  0  0  0  0  0  0  0  0  0  0
   -3.5826    1.6983    0.0676 C   0  0  0  0  0  0  0  0  0  0  0  0
   -5.0276    1.9679    0.2709 C   0  0  0  0  0  0  0  0  0  0  0  0
   -5.5453    2.0555    1.5529 C   0  0  0  0  0  0  0  0  0  0  0  0
   -6.8981    2.3079    1.7545 C   0  0  0  0  0  0  0  0  0  0  0  0
   -7.7654    2.4786    0.6915 C   0  0  0  0  0  0  0  0  0  0  0  0
   -7.2527    2.3918   -0.5778 C   0  0  0  0  0  0  0  0  0  0  0  0
   -5.9123    2.1418   -0.7798 C   0  0  0  0  0  0  0  0  0  0  0  0
   -2.7116   -0.1869   -2.5546 H   0  0  0  0  0  0  0  0  0  0  0  0
   -5.1182   -0.3821   -1.0409 H   0  0  0  0  0  0  0  0  0  0  0  0
   -3.7765   -1.5159   -1.1979 H   0  0  0  0  0  0  0  0  0  0  0  0
   -3.6112   -0.2977    0.9079 H   0  0  0  0  0  0  0  0  0  0  0  0
   -1.2388    0.8981   -0.3224 H   0  0  0  0  0  0  0  0  0  0  0  0
   -2.9586   -4.7395    0.7247 H   0  0  0  0  0  0  0  0  0  0  0  0
   -1.8114   -5.6485   -0.4011 H   0  0  0  0  0  0  0  0  0  0  0  0
    3.0501   -4.7867   -0.6394 H   0  0  0  0  0  0  0  0  0  0  0  0
    4.0685   -2.4373   -0.8547 H   0  0  0  0  0  0  0  0  0  0  0  0
    2.2841   -0.4616    0.5759 H   0  0  0  0  0  0  0  0  0  0  0  0
    3.7103   -1.3946    1.2358 H   0  0  0  0  0  0  0  0  0  0  0  0
    5.0647   -0.5448   -0.6959 H   0  0  0  0  0  0  0  0  0  0  0  0
    2.4286    0.8598   -1.4010 H   0  0  0  0  0  0  0  0  0  0  0  0
    1.9986   -1.1199   -2.5412 H   0  0  0  0  0  0  0  0  0  0  0  0
    4.1211   -2.4140   -2.8308 H   0  0  0  0  0  0  0  0  0  0  0  0
    3.5079    1.4808   -3.1416 H   0  0  0  0  0  0  0  0  0  0  0  0
    4.2173    4.1224    1.7215 H   0  0  0  0  0  0  0  0  0  0  0  0
    6.4109    0.5088    1.2756 H   0  0  0  0  0  0  0  0  0  0  0  0
    7.7287    2.8358    2.2621 H   0  0  0  0  0  0  0  0  0  0  0  0
    6.5596    4.0291    2.9255 H   0  0  0  0  0  0  0  0  0  0  0  0
    6.7042    2.3574    3.6326 H   0  0  0  0  0  0  0  0  0  0  0  0
   -3.0049    2.1106    0.9046 H   0  0  0  0  0  0  0  0  0  0  0  0
   -3.2952    2.1703   -0.8977 H   0  0  0  0  0  0  0  0  0  0  0  0
   -4.9348    1.9342    2.4406 H   0  0  0  0  0  0  0  0  0  0  0  0
   -7.2991    2.3756    2.7547 H   0  0  0  0  0  0  0  0  0  0  0  0
   -8.8156    2.6745    0.8533 H   0  0  0  0  0  0  0  0  0  0  0  0
   -7.9589    2.5305   -1.3955 H   0  0  0  0  0  0  0  0  0  0  0  0
   -5.5232    2.0764   -1.8081 H   0  0  0  0  0  0  0  0  0  0  0  0
  1  2  1  0
  2  3  1  0
  3  4  1  0
  4  5  1  0
  5  6  2  0
  6  7  1  0
  7  8  1  0
  7  9  2  0
  9 10  1  0
 10 11  2  0
 10 12  1  0
 12 13  1  0
 13 14  2  0
 12 15  1  0
 15 16  1  0
 16 17  1  0
 17 18  1  0
 18 19  1  0
 19 20  1  0
 18 21  1  0
 17 22  1  0
 22 23  1  0
 23 24  2  0
 24 25  1  0
 25 26  2  0
 25 27  1  0
  3 28  1  0
 28 29  1  0
 29 30  2  0
 30 31  1  0
 31 32  2  0
 32 33  1  0
 33 34  2  0
 11  5  1  0
 19 15  1  0
 26 22  1  0
 34 29  1  0
 14  9  1  0
  1 35  1  0
  2 36  1  0
  2 37  1  0
  3 38  1  1
  4 39  1  0
  8 40  1  0
  8 41  1  0
 13 42  1  0
 15 43  1  6
 16 44  1  0
 16 45  1  0
 17 46  1  6
 18 47  1  1
 19 48  1  6
 20 49  1  0
 21 50  1  0
 24 51  1  0
 26 52  1  0
 27 53  1  0
 27 54  1  0
 27 55  1  0
 28 56  1  0
 28 57  1  0
 30 58  1  0
 31 59  1  0
 32 60  1  0
 33 61  1  0
 34 62  1  0
M  END
>  <Ligand ID>  (1) 
LIG0003904

>  <Ligand>  (1) 
CHEMBL592246

>  <SMILES>  (1) 
OC[C@@H](Nc1nc(N)c2c(n1)n(cn2)[C@@H]1C[C@@H]([C@H]([C@H]1O)O)n1ncc(c1)C)Cc1ccccc1

>  <CID>  (1) 
46230151.0

>  <ChEMBL ID>  (1) 
nan

>  <InChiKey>  (1) 
LKBHTUWEPYNFEX-SQIBXOBRSA-N

>  <InChi>  (1) 
InChI=1S/C23H28N8O3/c1-13-9-26-31(10-13)17-8-16(19(33)20(17)34)30-12-25-18-21(24)28-23(29-22(18)30)27-15(11-32)7-14-5-3-2-4-6-14/h2-6,9-10,12,15-17,19-20,32-34H,7-8,11H2,1H3,(H3,24,27,28,29)/t15-,16+,17-,19-,20+/m0/s1

>  <IUPAC Name>  (1) 
(1R,2S,3R,5S)-3-[6-amino-2-[[(2S)-1-hydroxy-3-phenylpropan-2-yl]amino]purin-9-yl]-5-(4-methylpyrazol-1-yl)cyclopentane-1,2-diol

$$$$
