
     RDKit          3D

 22 22  0  0  0  0  0  0  0  0999 V2000
   -3.1269    0.5259    1.3816 N   0  0  0  0  0  0  0  0  0  0  0  0
   -2.0623    0.4879    0.3686 C   0  0  2  0  0  0  0  0  0  0  0  0
   -2.0985   -0.8892   -0.1836 C   0  0  0  0  0  0  0  0  0  0  0  0
   -2.9397   -1.7522    0.2369 O   0  0  0  0  0  0  0  0  0  0  0  0
   -1.2383   -1.3352   -1.1789 O   0  0  0  0  0  0  0  0  0  0  0  0
   -0.8012    0.7794    1.1334 C   0  0  0  0  0  0  0  0  0  0  0  0
    0.3885    0.7923    0.3240 N   0  0  0  0  0  0  0  0  0  0  0  0
    0.9717    1.7763   -0.3244 N   0  0  0  0  0  0  0  0  0  0  0  0
    2.0716    1.3465   -0.9590 N   0  0  0  0  0  0  0  0  0  0  0  0
    2.2095    0.0289   -0.7133 C   0  0  0  0  0  0  0  0  0  0  0  0
    1.1468   -0.3184    0.0961 C   0  0  0  0  0  0  0  0  0  0  0  0
    3.2436   -0.8920   -1.1768 C   0  0  0  0  0  0  0  0  0  0  0  0
    3.2448   -2.1180   -0.8622 O   0  0  0  0  0  0  0  0  0  0  0  0
    4.2748   -0.4489   -1.9894 O   0  0  0  0  0  0  0  0  0  0  0  0
   -2.9802   -0.3097    2.0213 H   0  0  0  0  0  0  0  0  0  0  0  0
   -2.9560    1.3682    1.9893 H   0  0  0  0  0  0  0  0  0  0  0  0
   -2.3073    1.2455   -0.3843 H   0  0  0  0  0  0  0  0  0  0  0  0
   -1.5409   -1.9373   -1.9375 H   0  0  0  0  0  0  0  0  0  0  0  0
   -0.6950    0.0111    1.9207 H   0  0  0  0  0  0  0  0  0  0  0  0
   -0.9767    1.7383    1.6791 H   0  0  0  0  0  0  0  0  0  0  0  0
    0.9493   -1.3230    0.4885 H   0  0  0  0  0  0  0  0  0  0  0  0
    5.2224   -0.8399   -1.9303 H   0  0  0  0  0  0  0  0  0  0  0  0
  1  2  1  0
  2  3  1  0
  3  4  2  0
  3  5  1  0
  2  6  1  0
  6  7  1  0
  7  8  1  0
  8  9  2  0
  9 10  1  0
 10 11  2  0
 10 12  1  0
 12 13  2  0
 12 14  1  0
 11  7  1  0
  1 15  1  0
  1 16  1  0
  2 17  1  6
  5 18  1  0
  6 19  1  0
  6 20  1  0
 11 21  1  0
 14 22  1  0
M  END
>  <Ligand ID>  (1) 
LIG0005755

>  <Ligand>  (1) 
CHEMBL1288410

>  <SMILES>  (1) 
N[C@H](C(=O)O)Cn1nnc(c1)C(=O)O

>  <CID>  (1) 
52941386.0

>  <ChEMBL ID>  (1) 
nan

>  <InChiKey>  (1) 
FOAQSAOIBZTITH-VKHMYHEASA-N

>  <InChi>  (1) 
InChI=1S/C6H8N4O4/c7-3(5(11)12)1-10-2-4(6(13)14)8-9-10/h2-3H,1,7H2,(H,11,12)(H,13,14)/t3-/m0/s1

>  <IUPAC Name>  (1) 
1-[(2S)-2-amino-2-carboxyethyl]triazole-4-carboxylic acid

$$$$
