
     RDKit          3D

 38 40  0  0  0  0  0  0  0  0999 V2000
   -5.2546    1.1456   -3.2476 Cl  0  0  0  0  0  0  0  0  0  0  0  0
   -4.2872    0.6514   -1.8676 C   0  0  0  0  0  0  0  0  0  0  0  0
   -4.2791   -0.6543   -1.4417 C   0  0  0  0  0  0  0  0  0  0  0  0
   -3.5251   -1.0474   -0.3637 C   0  0  0  0  0  0  0  0  0  0  0  0
   -2.7312   -0.1401    0.3504 C   0  0  0  0  0  0  0  0  0  0  0  0
   -2.7551    1.1539   -0.0916 C   0  0  0  0  0  0  0  0  0  0  0  0
   -3.5135    1.5667   -1.1814 C   0  0  0  0  0  0  0  0  0  0  0  0
   -1.9593   -0.6397    1.4936 C   0  0  0  0  0  0  0  0  0  0  0  0
   -0.7159   -1.1214    1.2344 O   0  0  0  0  0  0  0  0  0  0  0  0
    0.2077   -0.2963    0.6798 C   0  0  2  0  0  0  0  0  0  0  0  0
    0.5842   -0.9016   -0.6757 C   0  0  0  0  0  0  0  0  0  0  0  0
    1.9601   -0.4160   -1.0017 C   0  0  2  0  0  0  0  0  0  0  0  0
    2.5813   -0.0596    0.2953 C   0  0  2  0  0  0  0  0  0  0  0  0
    1.5433   -0.2886    1.3738 C   0  0  1  0  0  0  0  0  0  0  0  0
    1.6625    0.8586    2.2663 N   0  0  0  0  0  0  0  0  0  0  0  0
    1.8715   -1.5525    2.0601 C   0  0  0  0  0  0  0  0  0  0  0  0
    2.2113   -1.5885    3.2804 O   0  0  0  0  0  0  0  0  0  0  0  0
    1.8032   -2.7241    1.3430 O   0  0  0  0  0  0  0  0  0  0  0  0
    2.3939    0.9872   -0.7308 C   0  0  2  0  0  0  0  0  0  0  0  0
    1.4835    1.9953   -0.5812 F   0  0  0  0  0  0  0  0  0  0  0  0
    3.6267    1.3930   -1.4748 C   0  0  0  0  0  0  0  0  0  0  0  0
    4.5686    0.5904   -1.7030 O   0  0  0  0  0  0  0  0  0  0  0  0
    3.8011    2.6923   -1.9600 O   0  0  0  0  0  0  0  0  0  0  0  0
   -4.8712   -1.4301   -1.9428 H   0  0  0  0  0  0  0  0  0  0  0  0
   -3.5315   -2.0942   -0.0385 H   0  0  0  0  0  0  0  0  0  0  0  0
   -2.1777    1.8906    0.4092 H   0  0  0  0  0  0  0  0  0  0  0  0
   -3.5050    2.5993   -1.4996 H   0  0  0  0  0  0  0  0  0  0  0  0
   -2.0008    0.1372    2.2833 H   0  0  0  0  0  0  0  0  0  0  0  0
   -2.5426   -1.4999    1.9379 H   0  0  0  0  0  0  0  0  0  0  0  0
   -0.1077    0.7219    0.4730 H   0  0  0  0  0  0  0  0  0  0  0  0
   -0.1551   -0.6320   -1.4512 H   0  0  0  0  0  0  0  0  0  0  0  0
    0.6481   -2.0042   -0.5573 H   0  0  0  0  0  0  0  0  0  0  0  0
    2.5383   -1.0383   -1.7117 H   0  0  0  0  0  0  0  0  0  0  0  0
    3.6095   -0.4525    0.4599 H   0  0  0  0  0  0  0  0  0  0  0  0
    1.1317    1.6383    1.7732 H   0  0  0  0  0  0  0  0  0  0  0  0
    2.6693    1.1310    2.3698 H   0  0  0  0  0  0  0  0  0  0  0  0
    2.2890   -3.5799    1.6304 H   0  0  0  0  0  0  0  0  0  0  0  0
    4.7278    3.0084   -2.1916 H   0  0  0  0  0  0  0  0  0  0  0  0
  1  2  1  0
  2  3  2  0
  3  4  1  0
  4  5  2  0
  5  6  1  0
  6  7  2  0
  5  8  1  0
  8  9  1  0
  9 10  1  0
 10 11  1  0
 11 12  1  0
 12 13  1  0
 13 14  1  0
 14 15  1  1
 14 16  1  0
 16 17  2  0
 16 18  1  0
 13 19  1  0
 19 20  1  1
 19 21  1  0
 21 22  2  0
 21 23  1  0
  7  2  1  0
 14 10  1  0
 19 12  1  0
  3 24  1  0
  4 25  1  0
  6 26  1  0
  7 27  1  0
  8 28  1  0
  8 29  1  0
 10 30  1  6
 11 31  1  0
 11 32  1  0
 12 33  1  6
 13 34  1  1
 15 35  1  0
 15 36  1  0
 18 37  1  0
 23 38  1  0
M  END
>  <Ligand ID>  (1) 
LIG0005706

>  <Ligand>  (1) 
CHEMBL189814

>  <SMILES>  (1) 
Clc1ccc(cc1)CO[C@@H]1C[C@@H]2[C@H]([C@]1(N)C(=O)O)[C@@]2(F)C(=O)O

>  <CID>  (1) 
11279365.0

>  <ChEMBL ID>  (1) 
nan

>  <InChiKey>  (1) 
JMJOEJHKSMMCAT-ZNLHFFCSSA-N

>  <InChi>  (1) 
InChI=1S/C15H15ClFNO5/c16-8-3-1-7(2-4-8)6-23-10-5-9-11(14(9,17)12(19)20)15(10,18)13(21)22/h1-4,9-11H,5-6,18H2,(H,19,20)(H,21,22)/t9-,10-,11+,14-,15+/m1/s1

>  <IUPAC Name>  (1) 
(1R,2R,3R,5R,6R)-2-amino-3-[(4-chlorophenyl)methoxy]-6-fluorobicyclo[3.1.0]hexane-2,6-dicarboxylic acid

$$$$
