
     RDKit          3D

 44 44  0  0  0  0  0  0  0  0999 V2000
    6.5111    2.1837    0.0800 O   0  0  0  0  0  0  0  0  0  0  0  0
    5.3393    2.9036   -0.1356 C   0  0  0  0  0  0  0  0  0  0  0  0
    5.3752    4.1533   -0.2725 O   0  0  0  0  0  0  0  0  0  0  0  0
    4.0202    2.2461   -0.2126 C   0  0  0  0  0  0  0  0  0  0  0  0
    4.1187    0.8439   -0.0432 O   0  0  0  0  0  0  0  0  0  0  0  0
    2.9668    0.0686   -0.0878 C   0  0  0  0  0  0  0  0  0  0  0  0
    1.7398    0.6484   -0.2938 C   0  0  0  0  0  0  0  0  0  0  0  0
    0.6021   -0.1179   -0.3378 C   0  0  0  0  0  0  0  0  0  0  0  0
    0.6456   -1.4853   -0.1786 C   0  0  0  0  0  0  0  0  0  0  0  0
    1.8605   -2.0892    0.0288 C   0  0  0  0  0  0  0  0  0  0  0  0
    2.9917   -1.3134    0.0710 C   0  0  0  0  0  0  0  0  0  0  0  0
    4.3135   -1.9086    0.2896 C   0  0  0  0  0  0  0  0  0  0  0  0
    5.3272   -1.1887    0.3247 O   0  0  0  0  0  0  0  0  0  0  0  0
    4.4382   -3.2976    0.4606 O   0  0  0  0  0  0  0  0  0  0  0  0
   -0.5584   -2.3537   -0.2187 C   0  0  0  0  0  0  0  0  0  0  0  0
   -2.0913   -1.4177   -0.2810 P   0  0  0  0  0  0  0  0  0  0  0  0
   -3.2137   -2.4483   -0.3579 O   0  0  0  0  0  0  0  0  0  0  0  0
   -2.3524   -0.4515    1.2006 C   0  0  0  0  0  0  0  0  0  0  0  0
   -3.1681    0.7913    1.0038 C   0  0  0  0  0  0  0  0  0  0  0  0
   -4.5548    0.5524    0.4832 C   0  0  1  0  0  0  0  0  0  0  0  0
   -5.1878    1.9135    0.3618 C   0  0  0  0  0  0  0  0  0  0  0  0
   -5.2344    2.6940    1.3546 O   0  0  0  0  0  0  0  0  0  0  0  0
   -5.7388    2.3501   -0.8451 O   0  0  0  0  0  0  0  0  0  0  0  0
   -4.6230   -0.1403   -0.7653 N   0  0  0  0  0  0  0  0  0  0  0  0
   -2.1443   -0.5279   -1.7000 O   0  0  0  0  0  0  0  0  0  0  0  0
   -0.5050   -3.2584    0.8217 O   0  0  0  0  0  0  0  0  0  0  0  0
    7.3613    2.5427   -0.3732 H   0  0  0  0  0  0  0  0  0  0  0  0
    3.5700    2.4421   -1.2163 H   0  0  0  0  0  0  0  0  0  0  0  0
    3.3732    2.7157    0.5596 H   0  0  0  0  0  0  0  0  0  0  0  0
    1.7131    1.7375   -0.4197 H   0  0  0  0  0  0  0  0  0  0  0  0
   -0.3491    0.3695   -0.5018 H   0  0  0  0  0  0  0  0  0  0  0  0
    1.9948   -3.1576    0.1647 H   0  0  0  0  0  0  0  0  0  0  0  0
    5.3505   -3.7587    0.3417 H   0  0  0  0  0  0  0  0  0  0  0  0
   -0.4691   -2.9439   -1.1664 H   0  0  0  0  0  0  0  0  0  0  0  0
   -1.3835   -0.1324    1.6253 H   0  0  0  0  0  0  0  0  0  0  0  0
   -2.8512   -1.0331    2.0102 H   0  0  0  0  0  0  0  0  0  0  0  0
   -2.6302    1.5627    0.4172 H   0  0  0  0  0  0  0  0  0  0  0  0
   -3.2920    1.2412    2.0165 H   0  0  0  0  0  0  0  0  0  0  0  0
   -5.1426   -0.0174    1.2263 H   0  0  0  0  0  0  0  0  0  0  0  0
   -5.7893    3.3487   -1.0730 H   0  0  0  0  0  0  0  0  0  0  0  0
   -5.4577   -0.7632   -0.8563 H   0  0  0  0  0  0  0  0  0  0  0  0
   -4.7120    0.5572   -1.5409 H   0  0  0  0  0  0  0  0  0  0  0  0
   -1.9238   -1.1537   -2.4331 H   0  0  0  0  0  0  0  0  0  0  0  0
   -0.2406   -2.9077    1.6879 H   0  0  0  0  0  0  0  0  0  0  0  0
  1  2  1  0
  2  3  2  0
  2  4  1  0
  4  5  1  0
  5  6  1  0
  6  7  2  0
  7  8  1  0
  8  9  2  0
  9 10  1  0
 10 11  2  0
 11 12  1  0
 12 13  2  0
 12 14  1  0
  9 15  1  0
 15 16  1  0
 16 17  2  0
 16 18  1  0
 18 19  1  0
 19 20  1  0
 20 21  1  0
 21 22  2  0
 21 23  1  0
 20 24  1  0
 16 25  1  0
 15 26  1  0
 11  6  1  0
  1 27  1  0
  4 28  1  0
  4 29  1  0
  7 30  1  0
  8 31  1  0
 10 32  1  0
 14 33  1  0
 15 34  1  0
 18 35  1  0
 18 36  1  0
 19 37  1  0
 19 38  1  0
 20 39  1  1
 23 40  1  0
 24 41  1  0
 24 42  1  0
 25 43  1  0
 26 44  1  0
M  END
>  <Ligand ID>  (1) 
LIG0002470

>  <Ligand>  (1) 
CHEMBL3927149

>  <SMILES>  (1) 
OC(=O)COc1ccc(cc1C(=O)O)C(P(=O)(CC[C@@H](C(=O)O)N)O)O

>  <CID>  (1) 
71042039.0

>  <ChEMBL ID>  (1) 
nan

>  <InChiKey>  (1) 
HLBMHNZCZUXUSO-CUVJYRNJSA-N

>  <InChi>  (1) 
InChI=1S/C14H18NO10P/c15-9(13(20)21)3-4-26(23,24)14(22)7-1-2-10(25-6-11(16)17)8(5-7)12(18)19/h1-2,5,9,14,22H,3-4,6,15H2,(H,16,17)(H,18,19)(H,20,21)(H,23,24)/t9-,14?/m0/s1

>  <IUPAC Name>  (1) 
5-[[[(3S)-3-amino-3-carboxypropyl]-hydroxyphosphoryl]-hydroxymethyl]-2-(carboxymethoxy)benzoic acid

$$$$
