
     RDKit          3D

 48 52  0  0  0  0  0  0  0  0999 V2000
   -5.0908    2.1841   -1.8194 O   0  0  0  0  0  0  0  0  0  0  0  0
   -5.1849    0.8085   -1.9401 C   0  0  0  0  0  0  0  0  0  0  0  0
   -4.6102    0.0662   -0.7751 C   0  0  1  0  0  0  0  0  0  0  0  0
   -4.6697   -1.4064   -0.8232 C   0  0  0  0  0  0  0  0  0  0  0  0
   -3.3413   -0.6828   -0.8693 C   0  0  2  0  0  0  0  0  0  0  0  0
   -2.6412   -0.6448    0.4712 C   0  0  2  0  0  0  0  0  0  0  0  0
   -3.5197    0.1593    1.3883 C   0  0  1  0  0  0  0  0  0  0  0  0
   -4.5756    0.8042    0.5384 C   0  0  2  0  0  0  0  0  0  0  0  0
   -5.8222    0.7624    1.1583 O   0  0  0  0  0  0  0  0  0  0  0  0
   -4.1885   -0.6467    2.3165 O   0  0  0  0  0  0  0  0  0  0  0  0
   -1.2931   -0.1031    0.3526 N   0  0  0  0  0  0  0  0  0  0  0  0
   -1.0326    1.1989    0.1469 C   0  0  0  0  0  0  0  0  0  0  0  0
    0.3122    1.3119    0.0939 N   0  0  0  0  0  0  0  0  0  0  0  0
    0.8584    0.1122    0.2625 C   0  0  0  0  0  0  0  0  0  0  0  0
   -0.1548   -0.8142    0.4309 C   0  0  0  0  0  0  0  0  0  0  0  0
    0.1523   -2.1192    0.6220 N   0  0  0  0  0  0  0  0  0  0  0  0
    1.4569   -2.5187    0.6483 C   0  0  0  0  0  0  0  0  0  0  0  0
    1.8350   -4.2206    0.8981 Cl  0  0  0  0  0  0  0  0  0  0  0  0
    2.4336   -1.6064    0.4830 N   0  0  0  0  0  0  0  0  0  0  0  0
    2.1961   -0.2963    0.2893 C   0  0  0  0  0  0  0  0  0  0  0  0
    3.2471    0.6493    0.1170 N   0  0  0  0  0  0  0  0  0  0  0  0
    4.6535    0.2745    0.1368 C   0  0  0  0  0  0  0  0  0  0  0  0
    5.5306    1.4885   -0.0721 C   0  0  0  0  0  0  0  0  0  0  0  0
    6.8071    0.8861   -0.5963 C   0  0  0  0  0  0  0  0  0  0  0  0
    6.4266   -0.4185   -1.2521 C   0  0  0  0  0  0  0  0  0  0  0  0
    4.9309   -0.5373   -1.1122 C   0  0  0  0  0  0  0  0  0  0  0  0
   -5.8600    2.5160   -1.3024 H   0  0  0  0  0  0  0  0  0  0  0  0
   -4.6648    0.4286   -2.8588 H   0  0  0  0  0  0  0  0  0  0  0  0
   -6.2463    0.5013   -2.0567 H   0  0  0  0  0  0  0  0  0  0  0  0
   -4.9690   -1.9822    0.0585 H   0  0  0  0  0  0  0  0  0  0  0  0
   -4.9585   -1.8668   -1.7789 H   0  0  0  0  0  0  0  0  0  0  0  0
   -2.7667   -0.6582   -1.8034 H   0  0  0  0  0  0  0  0  0  0  0  0
   -2.6273   -1.6881    0.8493 H   0  0  0  0  0  0  0  0  0  0  0  0
   -2.9495    0.8944    1.9952 H   0  0  0  0  0  0  0  0  0  0  0  0
   -4.2589    1.8493    0.3435 H   0  0  0  0  0  0  0  0  0  0  0  0
   -6.1190   -0.1732    1.2109 H   0  0  0  0  0  0  0  0  0  0  0  0
   -3.5846   -1.0157    3.0155 H   0  0  0  0  0  0  0  0  0  0  0  0
   -1.6974    2.0416    0.0359 H   0  0  0  0  0  0  0  0  0  0  0  0
    3.0034    1.6401   -0.0279 H   0  0  0  0  0  0  0  0  0  0  0  0
    4.9003   -0.3003    1.0485 H   0  0  0  0  0  0  0  0  0  0  0  0
    5.0197    2.1079   -0.8471 H   0  0  0  0  0  0  0  0  0  0  0  0
    5.6846    2.0566    0.8673 H   0  0  0  0  0  0  0  0  0  0  0  0
    7.4905    0.7118    0.2616 H   0  0  0  0  0  0  0  0  0  0  0  0
    7.3174    1.5710   -1.3223 H   0  0  0  0  0  0  0  0  0  0  0  0
    6.9054   -1.2787   -0.7373 H   0  0  0  0  0  0  0  0  0  0  0  0
    6.6799   -0.4164   -2.3410 H   0  0  0  0  0  0  0  0  0  0  0  0
    4.6001   -1.5905   -1.0055 H   0  0  0  0  0  0  0  0  0  0  0  0
    4.3850   -0.0397   -1.9393 H   0  0  0  0  0  0  0  0  0  0  0  0
  1  2  1  0
  3  2  1  6
  3  4  1  0
  4  5  1  0
  5  6  1  0
  6  7  1  0
  7  8  1  0
  8  9  1  0
  7 10  1  0
  6 11  1  0
 11 12  1  0
 12 13  2  0
 13 14  1  0
 14 15  2  0
 15 16  1  0
 16 17  2  0
 17 18  1  0
 17 19  1  0
 19 20  2  0
 20 21  1  0
 21 22  1  0
 22 23  1  0
 23 24  1  0
 24 25  1  0
 25 26  1  0
  8  3  1  0
 15 11  1  0
 26 22  1  0
  5  3  1  0
 20 14  1  0
  1 27  1  0
  2 28  1  0
  2 29  1  0
  4 30  1  0
  4 31  1  0
  5 32  1  6
  6 33  1  1
  7 34  1  1
  8 35  1  6
  9 36  1  0
 10 37  1  0
 12 38  1  0
 21 39  1  0
 22 40  1  0
 23 41  1  0
 23 42  1  0
 24 43  1  0
 24 44  1  0
 25 45  1  0
 25 46  1  0
 26 47  1  0
 26 48  1  0
M  END
>  <Ligand ID>  (1) 
LIG0003037

>  <Ligand>  (1) 
CHEMBL284216

>  <SMILES>  (1) 
OC[C@]12C[C@@H]2[C@H]([C@@H]([C@@H]1O)O)n1cnc2c1nc(Cl)nc2NC1CCCC1

>  <CID>  (1) 
9799990.0

>  <ChEMBL ID>  (1) 
nan

>  <InChiKey>  (1) 
BUOKJEIZVUAMBO-RFFHHDCGSA-N

>  <InChi>  (1) 
InChI=1S/C17H22ClN5O3/c18-16-21-14(20-8-3-1-2-4-8)10-15(22-16)23(7-19-10)11-9-5-17(9,6-24)13(26)12(11)25/h7-9,11-13,24-26H,1-6H2,(H,20,21,22)/t9-,11-,12+,13+,17+/m1/s1

>  <IUPAC Name>  (1) 
(1R,2R,3S,4R,5S)-4-[2-chloro-6-(cyclopentylamino)purin-9-yl]-1-(hydroxymethyl)bicyclo[3.1.0]hexane-2,3-diol

$$$$
