
     RDKit          3D

 27 28  0  0  0  0  0  0  0  0999 V2000
   -4.3384   -1.3748   -1.9428 Cl  0  0  0  0  0  0  0  0  0  0  0  0
   -3.3131   -0.4475   -0.8665 C   0  0  0  0  0  0  0  0  0  0  0  0
   -3.7567    0.8046   -0.4645 C   0  0  0  0  0  0  0  0  0  0  0  0
   -2.9252    1.5318    0.3936 C   0  0  0  0  0  0  0  0  0  0  0  0
   -3.4154    3.1175    0.9409 Cl  0  0  0  0  0  0  0  0  0  0  0  0
   -1.7153    1.0288    0.8216 C   0  0  0  0  0  0  0  0  0  0  0  0
   -1.2620   -0.2291    0.4201 C   0  0  0  0  0  0  0  0  0  0  0  0
   -2.1103   -0.9435   -0.4387 C   0  0  0  0  0  0  0  0  0  0  0  0
   -1.7112   -2.2150   -0.8773 O   0  0  0  0  0  0  0  0  0  0  0  0
    0.0185   -0.7409    0.8988 C   0  0  0  0  0  0  0  0  0  0  0  0
    1.2184   -0.2040    0.2638 C   0  0  0  0  0  0  0  0  0  0  0  0
    2.4440   -0.4828    0.8687 C   0  0  0  0  0  0  0  0  0  0  0  0
    2.4658   -1.2566    2.0476 O   0  0  0  0  0  0  0  0  0  0  0  0
    3.6345   -0.0274    0.3484 C   0  0  0  0  0  0  0  0  0  0  0  0
    5.1223   -0.4374    1.1951 Cl  0  0  0  0  0  0  0  0  0  0  0  0
    3.6823    0.7321   -0.8033 C   0  0  0  0  0  0  0  0  0  0  0  0
    2.4677    1.0075   -1.4049 C   0  0  0  0  0  0  0  0  0  0  0  0
    1.2671    0.5485   -0.8797 C   0  0  0  0  0  0  0  0  0  0  0  0
   -0.2156    0.9404   -1.7172 Cl  0  0  0  0  0  0  0  0  0  0  0  0
    2.5118    1.9772   -2.8676 Cl  0  0  0  0  0  0  0  0  0  0  0  0
   -0.6822    1.9692    1.9067 Cl  0  0  0  0  0  0  0  0  0  0  0  0
   -4.6984    1.2171   -0.7888 H   0  0  0  0  0  0  0  0  0  0  0  0
   -1.6249   -2.9809   -0.2145 H   0  0  0  0  0  0  0  0  0  0  0  0
    0.0688   -1.8561    0.7940 H   0  0  0  0  0  0  0  0  0  0  0  0
    0.1375   -0.5601    1.9957 H   0  0  0  0  0  0  0  0  0  0  0  0
    2.1125   -2.2071    1.8981 H   0  0  0  0  0  0  0  0  0  0  0  0
    4.6175    1.0884   -1.1999 H   0  0  0  0  0  0  0  0  0  0  0  0
  1  2  1  0
  2  3  2  0
  3  4  1  0
  4  5  1  0
  4  6  2  0
  6  7  1  0
  7  8  2  0
  8  9  1  0
  7 10  1  0
 10 11  1  0
 11 12  2  0
 12 13  1  0
 12 14  1  0
 14 15  1  0
 14 16  2  0
 16 17  1  0
 17 18  2  0
 18 19  1  0
 17 20  1  0
  6 21  1  0
  8  2  1  0
 18 11  1  0
  3 22  1  0
  9 23  1  0
 10 24  1  0
 10 25  1  0
 13 26  1  0
 16 27  1  0
M  END
>  <Ligand ID>  (1) 
LIG0005737

>  <Ligand>  (1) 
hexachlorophene

>  <SMILES>  (1) 
Clc1cc(Cl)c(c(c1O)Cc1c(O)c(Cl)cc(c1Cl)Cl)Cl

>  <CID>  (1) 
3598.0

>  <ChEMBL ID>  (1) 
nan

>  <InChiKey>  (1) 
ACGUYXCXAPNIKK-UHFFFAOYSA-N

>  <InChi>  (1) 
InChI=1S/C13H6Cl6O2/c14-6-2-8(16)12(20)4(10(6)18)1-5-11(19)7(15)3-9(17)13(5)21/h2-3,20-21H,1H2

>  <IUPAC Name>  (1) 
3,4,6-trichloro-2-[(2,3,5-trichloro-6-hydroxyphenyl)methyl]phenol

$$$$
