
     RDKit          3D

 36 39  0  0  0  0  0  0  0  0999 V2000
    0.4953    2.0546   -0.0220 O   0  0  0  0  0  0  0  0  0  0  0  0
   -0.0142    0.8952   -0.0023 C   0  0  0  0  0  0  0  0  0  0  0  0
   -1.4218    0.7333    0.2220 N   0  0  0  0  0  0  0  0  0  0  0  0
   -2.3309    1.7889   -0.1236 C   0  0  0  0  0  0  0  0  0  0  0  0
   -3.7463    1.3314   -0.2324 C   0  0  0  0  0  0  0  0  0  0  0  0
   -3.8872   -0.1095   -0.3449 N   0  0  0  0  0  0  0  0  0  0  0  0
   -3.3222   -0.6672    0.8909 C   0  0  0  0  0  0  0  0  0  0  0  0
   -1.8404   -0.5233    0.7995 C   0  0  1  0  0  0  0  0  0  0  0  0
   -1.2638   -1.7084    0.0595 C   0  0  0  0  0  0  0  0  0  0  0  0
    0.1927   -1.5619   -0.1737 C   0  0  0  0  0  0  0  0  0  0  0  0
    0.8075   -0.3051   -0.2055 C   0  0  0  0  0  0  0  0  0  0  0  0
    2.1729   -0.1984   -0.4258 C   0  0  0  0  0  0  0  0  0  0  0  0
    2.9048   -1.3528   -0.6115 C   0  0  0  0  0  0  0  0  0  0  0  0
    2.3374   -2.6148   -0.5878 C   0  0  0  0  0  0  0  0  0  0  0  0
    0.9681   -2.7022   -0.3658 C   0  0  0  0  0  0  0  0  0  0  0  0
    2.7488    1.1588   -0.4455 C   0  0  0  0  0  0  0  0  0  0  0  0
    3.2652    1.8364    0.7589 C   0  0  0  0  0  0  0  0  0  0  0  0
    4.2645    1.1877   -0.1444 C   0  0  0  0  0  0  0  0  0  0  0  0
   -2.0589    2.2948   -1.0835 H   0  0  0  0  0  0  0  0  0  0  0  0
   -2.3007    2.6283    0.6305 H   0  0  0  0  0  0  0  0  0  0  0  0
   -4.3776    1.6627    0.6291 H   0  0  0  0  0  0  0  0  0  0  0  0
   -4.2445    1.7414   -1.1506 H   0  0  0  0  0  0  0  0  0  0  0  0
   -3.3580   -0.4793   -1.1544 H   0  0  0  0  0  0  0  0  0  0  0  0
   -3.7378   -0.0240    1.7152 H   0  0  0  0  0  0  0  0  0  0  0  0
   -3.5932   -1.7168    1.0461 H   0  0  0  0  0  0  0  0  0  0  0  0
   -1.4218   -0.5721    1.8269 H   0  0  0  0  0  0  0  0  0  0  0  0
   -1.7619   -1.8858   -0.9056 H   0  0  0  0  0  0  0  0  0  0  0  0
   -1.4082   -2.6166    0.6795 H   0  0  0  0  0  0  0  0  0  0  0  0
    3.9700   -1.2775   -0.7838 H   0  0  0  0  0  0  0  0  0  0  0  0
    2.9366   -3.5198   -0.7376 H   0  0  0  0  0  0  0  0  0  0  0  0
    0.5324   -3.7011   -0.3494 H   0  0  0  0  0  0  0  0  0  0  0  0
    2.4864    1.7819   -1.3406 H   0  0  0  0  0  0  0  0  0  0  0  0
    3.0709    1.3870    1.7663 H   0  0  0  0  0  0  0  0  0  0  0  0
    3.2746    2.9573    0.7126 H   0  0  0  0  0  0  0  0  0  0  0  0
    4.7471    0.2967    0.2547 H   0  0  0  0  0  0  0  0  0  0  0  0
    4.9142    1.8002   -0.8011 H   0  0  0  0  0  0  0  0  0  0  0  0
  1  2  2  0
  2  3  1  0
  3  4  1  0
  4  5  1  0
  5  6  1  0
  6  7  1  0
  7  8  1  0
  8  9  1  0
  9 10  1  0
 10 11  2  0
 11 12  1  0
 12 13  2  0
 13 14  1  0
 14 15  2  0
 12 16  1  0
 16 17  1  0
 17 18  1  0
 11  2  1  0
 18 16  1  0
  8  3  1  0
 15 10  1  0
  4 19  1  0
  4 20  1  0
  5 21  1  0
  5 22  1  0
  6 23  1  0
  7 24  1  0
  7 25  1  0
  8 26  1  1
  9 27  1  0
  9 28  1  0
 13 29  1  0
 14 30  1  0
 15 31  1  0
 16 32  1  0
 17 33  1  0
 17 34  1  0
 18 35  1  0
 18 36  1  0
M  END
>  <Ligand ID>  (1) 
LIG0002948

>  <Ligand>  (1) 
CHEMBL2397891

>  <SMILES>  (1) 
O=C1N2CCNC[C@H]2Cc2c1c(ccc2)C1CC1

>  <CID>  (1) 
58911579.0

>  <ChEMBL ID>  (1) 
nan

>  <InChiKey>  (1) 
ANCCVNZGJCOSCD-GFCCVEGCSA-N

>  <InChi>  (1) 
InChI=1S/C15H18N2O/c18-15-14-11(2-1-3-13(14)10-4-5-10)8-12-9-16-6-7-17(12)15/h1-3,10,12,16H,4-9H2/t12-/m1/s1

>  <IUPAC Name>  (1) 
(11aR)-7-cyclopropyl-1,2,3,4,11,11a-hexahydropyrazino[1,2-b]isoquinolin-6-one

$$$$
