
     RDKit          3D

 59 63  0  0  0  0  0  0  0  0999 V2000
    2.6538   -0.8738   -2.1804 O   0  0  0  0  0  0  0  0  0  0  0  0
    2.3677   -0.2174   -1.1480 C   0  0  0  0  0  0  0  0  0  0  0  0
    1.0103    0.1757   -0.9880 N   0  0  0  0  0  0  0  0  0  0  0  0
    0.0993   -0.2399   -2.0664 C   0  0  0  0  0  0  0  0  0  0  0  0
   -1.2978    0.3382   -1.7824 C   0  0  0  0  0  0  0  0  0  0  0  0
   -1.5960   -0.1225   -0.4114 N   0  0  0  0  0  0  0  0  0  0  0  0
   -0.7707    0.3799    0.6659 C   0  0  0  0  0  0  0  0  0  0  0  0
    0.5367    0.9374    0.1553 C   0  0  0  0  0  0  0  0  0  0  0  0
   -2.6623   -1.0294   -0.2507 C   0  0  0  0  0  0  0  0  0  0  0  0
   -2.3247   -2.3259   -0.0850 N   0  0  0  0  0  0  0  0  0  0  0  0
   -3.1703   -3.3350    0.0197 C   0  0  0  0  0  0  0  0  0  0  0  0
   -2.7980   -4.7570    0.2013 C   0  0  0  0  0  0  0  0  0  0  0  0
   -4.4969   -3.0140   -0.0486 N   0  0  0  0  0  0  0  0  0  0  0  0
   -4.8777   -1.7365   -0.2118 C   0  0  0  0  0  0  0  0  0  0  0  0
   -4.0223   -0.6589   -0.3232 C   0  0  0  0  0  0  0  0  0  0  0  0
   -4.5414    0.5572   -0.4761 C   0  0  0  0  0  0  0  0  0  0  0  0
   -3.9941    1.9638   -0.5858 C   0  0  0  0  0  0  0  0  0  0  0  0
   -4.6862    2.8800    0.4336 C   0  0  0  0  0  0  0  0  0  0  0  0
   -6.1634    2.7785    0.4496 C   0  0  0  0  0  0  0  0  0  0  0  0
   -6.6461    1.9361   -0.7009 C   0  0  0  0  0  0  0  0  0  0  0  0
   -5.9968    0.6001   -0.5137 C   0  0  0  0  0  0  0  0  0  0  0  0
   -6.5456   -1.0156   -0.3337 S   0  0  0  0  0  0  0  0  0  0  0  0
    3.3677    0.1564   -0.1111 C   0  0  0  0  0  0  0  0  0  0  0  0
    4.6496   -0.3029   -0.4236 O   0  0  0  0  0  0  0  0  0  0  0  0
    5.7868   -0.1288    0.3167 C   0  0  0  0  0  0  0  0  0  0  0  0
    5.6642    0.5813    1.5126 C   0  0  0  0  0  0  0  0  0  0  0  0
    6.7412    0.8188    2.3407 C   0  0  0  0  0  0  0  0  0  0  0  0
    7.9648    0.3090    1.9168 C   0  0  0  0  0  0  0  0  0  0  0  0
    8.1216   -0.3914    0.7507 C   0  0  0  0  0  0  0  0  0  0  0  0
    7.0237   -0.6135   -0.0584 C   0  0  0  0  0  0  0  0  0  0  0  0
    7.1533   -1.3746   -1.3407 C   0  0  0  0  0  0  0  0  0  0  0  0
    0.4720    0.0313   -3.0608 H   0  0  0  0  0  0  0  0  0  0  0  0
    0.0414   -1.3467   -1.9846 H   0  0  0  0  0  0  0  0  0  0  0  0
   -1.1828    1.4228   -1.7976 H   0  0  0  0  0  0  0  0  0  0  0  0
   -1.9807   -0.0911   -2.5174 H   0  0  0  0  0  0  0  0  0  0  0  0
   -1.3002    1.1644    1.2421 H   0  0  0  0  0  0  0  0  0  0  0  0
   -0.5265   -0.4712    1.3629 H   0  0  0  0  0  0  0  0  0  0  0  0
    1.2695    0.8404    0.9722 H   0  0  0  0  0  0  0  0  0  0  0  0
    0.3823    1.9837   -0.1777 H   0  0  0  0  0  0  0  0  0  0  0  0
   -1.7592   -4.8494    0.5580 H   0  0  0  0  0  0  0  0  0  0  0  0
   -2.8836   -5.3012   -0.7668 H   0  0  0  0  0  0  0  0  0  0  0  0
   -3.4232   -5.2593    0.9883 H   0  0  0  0  0  0  0  0  0  0  0  0
   -2.9319    2.0221   -0.3077 H   0  0  0  0  0  0  0  0  0  0  0  0
   -4.1072    2.3570   -1.6067 H   0  0  0  0  0  0  0  0  0  0  0  0
   -4.3774    3.9103    0.1520 H   0  0  0  0  0  0  0  0  0  0  0  0
   -4.2434    2.6106    1.4302 H   0  0  0  0  0  0  0  0  0  0  0  0
   -6.6853    3.7598    0.4873 H   0  0  0  0  0  0  0  0  0  0  0  0
   -6.5271    2.2463    1.3756 H   0  0  0  0  0  0  0  0  0  0  0  0
   -7.7171    1.7476   -0.7009 H   0  0  0  0  0  0  0  0  0  0  0  0
   -6.3771    2.3856   -1.6789 H   0  0  0  0  0  0  0  0  0  0  0  0
    3.0102   -0.2206    0.8673 H   0  0  0  0  0  0  0  0  0  0  0  0
    3.4002    1.2851   -0.1449 H   0  0  0  0  0  0  0  0  0  0  0  0
    4.6890    0.9750    1.8287 H   0  0  0  0  0  0  0  0  0  0  0  0
    6.6399    1.3749    3.2756 H   0  0  0  0  0  0  0  0  0  0  0  0
    8.8482    0.4640    2.5262 H   0  0  0  0  0  0  0  0  0  0  0  0
    9.0776   -0.7917    0.4163 H   0  0  0  0  0  0  0  0  0  0  0  0
    8.1391   -1.8702   -1.3245 H   0  0  0  0  0  0  0  0  0  0  0  0
    6.3082   -2.0469   -1.5119 H   0  0  0  0  0  0  0  0  0  0  0  0
    7.1945   -0.6078   -2.1559 H   0  0  0  0  0  0  0  0  0  0  0  0
  1  2  2  0
  2  3  1  0
  3  4  1  0
  4  5  1  0
  5  6  1  0
  6  7  1  0
  7  8  1  0
  6  9  1  0
  9 10  2  0
 10 11  1  0
 11 12  1  0
 11 13  2  0
 13 14  1  0
 14 15  2  0
 15 16  1  0
 16 17  1  0
 17 18  1  0
 18 19  1  0
 19 20  1  0
 20 21  1  0
 21 22  1  0
  2 23  1  0
 23 24  1  0
 24 25  1  0
 25 26  2  0
 26 27  1  0
 27 28  2  0
 28 29  1  0
 29 30  2  0
 30 31  1  0
  8  3  1  0
 15  9  1  0
 21 16  2  0
 30 25  1  0
 22 14  1  0
  4 32  1  0
  4 33  1  0
  5 34  1  0
  5 35  1  0
  7 36  1  0
  7 37  1  0
  8 38  1  0
  8 39  1  0
 12 40  1  0
 12 41  1  0
 12 42  1  0
 17 43  1  0
 17 44  1  0
 18 45  1  0
 18 46  1  0
 19 47  1  0
 19 48  1  0
 20 49  1  0
 20 50  1  0
 23 51  1  0
 23 52  1  0
 26 53  1  0
 27 54  1  0
 28 55  1  0
 29 56  1  0
 31 57  1  0
 31 58  1  0
 31 59  1  0
M  END
>  <Ligand ID>  (1) 
LIG0003879

>  <Ligand>  (1) 
MLS-0437136.0001

>  <SMILES>  (1) 
O=C(N1CCN(CC1)c1nc(C)nc2c1c1CCCCc1s2)COc1ccccc1C

>  <CID>  (1) 
1434960.0

>  <ChEMBL ID>  (1) 
nan

>  <InChiKey>  (1) 
VAIMDXGIRALYIF-UHFFFAOYSA-N

>  <InChi>  (1) 
InChI=1S/C24H28N4O2S/c1-16-7-3-5-9-19(16)30-15-21(29)27-11-13-28(14-12-27)23-22-18-8-4-6-10-20(18)31-24(22)26-17(2)25-23/h3,5,7,9H,4,6,8,10-15H2,1-2H3

>  <IUPAC Name>  (1) 
2-(2-methylphenoxy)-1-[4-(2-methyl-5,6,7,8-tetrahydro-[1]benzothiolo[2,3-d]pyrimidin-4-yl)piperazin-1-yl]ethanone

$$$$
