
     RDKit          3D

 54 56  0  0  0  0  0  0  0  0999 V2000
   -4.2510   -2.0444    1.2245 O   0  0  0  0  0  0  0  0  0  0  0  0
   -3.6875   -1.4647    0.0953 C   0  0  0  0  0  0  0  0  0  0  0  0
   -3.8157    0.0282    0.0796 C   0  0  0  0  0  0  0  0  0  0  0  0
   -5.2389    0.4749    0.1087 C   0  0  0  0  0  0  0  0  0  0  0  0
   -5.8955    0.9491   -1.0070 C   0  0  0  0  0  0  0  0  0  0  0  0
   -7.2299    1.3552   -0.9284 C   0  0  0  0  0  0  0  0  0  0  0  0
   -7.9354    1.2975    0.2591 C   0  0  0  0  0  0  0  0  0  0  0  0
   -7.2836    0.8259    1.3707 C   0  0  0  0  0  0  0  0  0  0  0  0
   -5.9595    0.4195    1.3069 C   0  0  0  0  0  0  0  0  0  0  0  0
   -5.3611   -0.0384    2.4329 F   0  0  0  0  0  0  0  0  0  0  0  0
   -2.2285   -1.8107    0.1508 C   0  0  0  0  0  0  0  0  0  0  0  0
   -1.2607   -0.9511    0.0226 C   0  0  0  0  0  0  0  0  0  0  0  0
    0.1958   -1.2550    0.0720 C   0  0  1  0  0  0  0  0  0  0  0  0
    0.5296   -2.6666    0.4019 C   0  0  0  0  0  0  0  0  0  0  0  0
    0.8221   -3.3139   -0.9409 C   0  0  0  0  0  0  0  0  0  0  0  0
    1.3877   -2.1695   -1.7520 C   0  0  0  0  0  0  0  0  0  0  0  0
    2.1335   -2.2822   -2.7110 O   0  0  0  0  0  0  0  0  0  0  0  0
    0.8925   -0.8885   -1.1980 C   0  0  2  0  0  0  0  0  0  0  0  0
    2.0194    0.0769   -0.9127 C   0  0  0  0  0  0  0  0  0  0  0  0
    3.0702   -0.4459    0.0044 C   0  0  0  0  0  0  0  0  0  0  0  0
    4.1663    0.5660    0.2296 C   0  0  0  0  0  0  0  0  0  0  0  0
    4.0991    1.4819    1.2642 C   0  0  0  0  0  0  0  0  0  0  0  0
    5.1587    2.3727    1.3932 C   0  0  0  0  0  0  0  0  0  0  0  0
    6.2404    2.3398    0.5140 C   0  0  0  0  0  0  0  0  0  0  0  0
    6.2846    1.4157   -0.5118 C   0  0  0  0  0  0  0  0  0  0  0  0
    5.2405    0.5272   -0.6503 C   0  0  0  0  0  0  0  0  0  0  0  0
    7.3423    3.2797    0.6647 C   0  0  0  0  0  0  0  0  0  0  0  0
    8.3377    3.2700   -0.1236 O   0  0  0  0  0  0  0  0  0  0  0  0
    7.3476    4.2242    1.6774 O   0  0  0  0  0  0  0  0  0  0  0  0
   -3.5783   -2.2659    1.9288 H   0  0  0  0  0  0  0  0  0  0  0  0
   -4.1660   -1.9212   -0.7842 H   0  0  0  0  0  0  0  0  0  0  0  0
   -3.2318    0.4636    0.9061 H   0  0  0  0  0  0  0  0  0  0  0  0
   -3.3989    0.3922   -0.8824 H   0  0  0  0  0  0  0  0  0  0  0  0
   -5.3452    0.9937   -1.9314 H   0  0  0  0  0  0  0  0  0  0  0  0
   -7.7072    1.7204   -1.8267 H   0  0  0  0  0  0  0  0  0  0  0  0
   -8.9685    1.6043    0.3525 H   0  0  0  0  0  0  0  0  0  0  0  0
   -7.7801    0.7536    2.3399 H   0  0  0  0  0  0  0  0  0  0  0  0
   -2.0026   -2.8575    0.3068 H   0  0  0  0  0  0  0  0  0  0  0  0
   -1.5231    0.0960   -0.1374 H   0  0  0  0  0  0  0  0  0  0  0  0
    0.5971   -0.6152    0.9150 H   0  0  0  0  0  0  0  0  0  0  0  0
   -0.1756   -3.2114    1.0254 H   0  0  0  0  0  0  0  0  0  0  0  0
    1.5191   -2.6841    0.9534 H   0  0  0  0  0  0  0  0  0  0  0  0
    1.6002   -4.0973   -0.8707 H   0  0  0  0  0  0  0  0  0  0  0  0
   -0.0691   -3.7580   -1.4174 H   0  0  0  0  0  0  0  0  0  0  0  0
    0.1804   -0.4566   -1.9493 H   0  0  0  0  0  0  0  0  0  0  0  0
    2.5370    0.2977   -1.8907 H   0  0  0  0  0  0  0  0  0  0  0  0
    1.6259    1.0665   -0.5802 H   0  0  0  0  0  0  0  0  0  0  0  0
    2.6067   -0.5792    1.0239 H   0  0  0  0  0  0  0  0  0  0  0  0
    3.4723   -1.4147   -0.3005 H   0  0  0  0  0  0  0  0  0  0  0  0
    3.2483    1.4934    1.9400 H   0  0  0  0  0  0  0  0  0  0  0  0
    5.1656    3.1106    2.1795 H   0  0  0  0  0  0  0  0  0  0  0  0
    7.1264    1.3988   -1.1866 H   0  0  0  0  0  0  0  0  0  0  0  0
    5.2914   -0.1990   -1.4690 H   0  0  0  0  0  0  0  0  0  0  0  0
    7.8555    5.0956    1.6367 H   0  0  0  0  0  0  0  0  0  0  0  0
  1  2  1  0
  2  3  1  0
  3  4  1  0
  4  5  2  0
  5  6  1  0
  6  7  2  0
  7  8  1  0
  8  9  2  0
  9 10  1  0
  2 11  1  0
 11 12  2  0
 12 13  1  0
 13 14  1  0
 14 15  1  0
 15 16  1  0
 16 17  2  0
 16 18  1  0
 18 19  1  0
 19 20  1  0
 20 21  1  0
 21 22  2  0
 22 23  1  0
 23 24  2  0
 24 25  1  0
 25 26  2  0
 24 27  1  0
 27 28  2  0
 27 29  1  0
  9  4  1  0
 18 13  1  0
 26 21  1  0
  1 30  1  0
  2 31  1  0
  3 32  1  0
  3 33  1  0
  5 34  1  0
  6 35  1  0
  7 36  1  0
  8 37  1  0
 11 38  1  0
 12 39  1  0
 13 40  1  1
 14 41  1  0
 14 42  1  0
 15 43  1  0
 15 44  1  0
 18 45  1  6
 19 46  1  0
 19 47  1  0
 20 48  1  0
 20 49  1  0
 22 50  1  0
 23 51  1  0
 25 52  1  0
 26 53  1  0
 29 54  1  0
M  END
>  <Ligand ID>  (1) 
LIG0002920

>  <Ligand>  (1) 
CHEMBL3904946

>  <SMILES>  (1) 
OC(Cc1ccccc1F)/C=C/[C@H]1CCC(=O)[C@@H]1CCc1ccc(cc1)C(=O)O

>  <CID>  (1) 
118517483.0

>  <ChEMBL ID>  (1) 
nan

>  <InChiKey>  (1) 
ABNHKWJQNLIOML-YILGNFQOSA-N

>  <InChi>  (1) 
InChI=1S/C24H25FO4/c25-22-4-2-1-3-19(22)15-20(26)12-10-17-11-14-23(27)21(17)13-7-16-5-8-18(9-6-16)24(28)29/h1-6,8-10,12,17,20-21,26H,7,11,13-15H2,(H,28,29)/b12-10+/t17-,20?,21+/m0/s1

>  <IUPAC Name>  (1) 
4-[2-[(1R,2R)-2-[(E)-4-(2-fluorophenyl)-3-hydroxybut-1-enyl]-5-oxocyclopentyl]ethyl]benzoic acid

$$$$
