
     RDKit          3D

 55 59  0  0  0  0  0  0  0  0999 V2000
   -6.5289   -1.1054   -0.5905 C   0  0  0  0  0  0  0  0  0  0  0  0
   -5.1223   -1.6054   -0.3955 C   0  0  0  0  0  0  0  0  0  0  0  0
   -4.3517   -0.8616    0.6587 C   0  0  0  0  0  0  0  0  0  0  0  0
   -4.2187    0.5831    0.3549 C   0  0  0  0  0  0  0  0  0  0  0  0
   -5.1882    1.5782    0.3131 C   0  0  0  0  0  0  0  0  0  0  0  0
   -4.8721    2.8958   -0.0011 C   0  0  0  0  0  0  0  0  0  0  0  0
   -3.5564    3.2035   -0.2754 C   0  0  0  0  0  0  0  0  0  0  0  0
   -2.6086    2.2037   -0.2291 C   0  0  0  0  0  0  0  0  0  0  0  0
   -2.9049    0.8921    0.0810 C   0  0  0  0  0  0  0  0  0  0  0  0
   -2.0815   -0.2692    0.1858 N   0  0  0  0  0  0  0  0  0  0  0  0
   -2.9310   -1.3541    0.5439 C   0  0  0  0  0  0  0  0  0  0  0  0
   -2.6448   -2.5629    0.7535 O   0  0  0  0  0  0  0  0  0  0  0  0
   -0.6701   -0.3983   -0.0176 C   0  0  0  0  0  0  0  0  0  0  0  0
   -0.1926   -0.1093   -1.4070 C   0  0  0  0  0  0  0  0  0  0  0  0
    0.9345    0.9021   -1.4091 C   0  0  0  0  0  0  0  0  0  0  0  0
    1.9878    0.4402   -0.5521 N   0  0  0  0  0  0  0  0  0  0  0  0
    1.5888    0.2526    0.8067 C   0  0  0  0  0  0  0  0  0  0  0  0
    0.0955    0.3441    1.0384 C   0  0  0  0  0  0  0  0  0  0  0  0
    2.7642   -0.6121   -1.1276 C   0  0  0  0  0  0  0  0  0  0  0  0
    3.8508   -1.0199   -0.2120 C   0  0  0  0  0  0  0  0  0  0  0  0
    3.8348   -2.1702    0.5447 C   0  0  0  0  0  0  0  0  0  0  0  0
    4.8989   -2.4382    1.3518 C   0  0  0  0  0  0  0  0  0  0  0  0
    5.9968   -1.5953    1.4389 C   0  0  0  0  0  0  0  0  0  0  0  0
    6.0269   -0.4498    0.6936 C   0  0  0  0  0  0  0  0  0  0  0  0
    4.9574   -0.1675   -0.1262 C   0  0  0  0  0  0  0  0  0  0  0  0
    5.2749    1.0304   -0.7369 C   0  0  0  0  0  0  0  0  0  0  0  0
    6.5179    1.4433   -0.2776 C   0  0  0  0  0  0  0  0  0  0  0  0
    6.9560    0.5134    0.6007 N   0  0  0  0  0  0  0  0  0  0  0  0
   -7.0391   -0.8583    0.3375 H   0  0  0  0  0  0  0  0  0  0  0  0
   -7.1476   -1.8920   -1.1124 H   0  0  0  0  0  0  0  0  0  0  0  0
   -6.5189   -0.2143   -1.2460 H   0  0  0  0  0  0  0  0  0  0  0  0
   -5.1533   -2.6718   -0.0925 H   0  0  0  0  0  0  0  0  0  0  0  0
   -4.5541   -1.5267   -1.3554 H   0  0  0  0  0  0  0  0  0  0  0  0
   -4.7627   -0.9937    1.6666 H   0  0  0  0  0  0  0  0  0  0  0  0
   -6.2324    1.3889    0.5204 H   0  0  0  0  0  0  0  0  0  0  0  0
   -5.6418    3.6626   -0.0294 H   0  0  0  0  0  0  0  0  0  0  0  0
   -3.2946    4.2165   -0.5199 H   0  0  0  0  0  0  0  0  0  0  0  0
   -1.5917    2.4964   -0.4532 H   0  0  0  0  0  0  0  0  0  0  0  0
   -0.4284   -1.4885    0.1612 H   0  0  0  0  0  0  0  0  0  0  0  0
   -1.0332    0.2329   -2.0782 H   0  0  0  0  0  0  0  0  0  0  0  0
    0.2198   -0.9957   -1.9409 H   0  0  0  0  0  0  0  0  0  0  0  0
    1.3637    0.9134   -2.4424 H   0  0  0  0  0  0  0  0  0  0  0  0
    0.6466    1.9007   -1.0731 H   0  0  0  0  0  0  0  0  0  0  0  0
    2.0171   -0.6766    1.2462 H   0  0  0  0  0  0  0  0  0  0  0  0
    2.0461    1.0895    1.4109 H   0  0  0  0  0  0  0  0  0  0  0  0
   -0.2829    1.3531    1.1924 H   0  0  0  0  0  0  0  0  0  0  0  0
   -0.0862   -0.2260    1.9938 H   0  0  0  0  0  0  0  0  0  0  0  0
    2.1420   -1.4844   -1.4485 H   0  0  0  0  0  0  0  0  0  0  0  0
    3.2408   -0.2006   -2.0542 H   0  0  0  0  0  0  0  0  0  0  0  0
    2.9750   -2.8324    0.4773 H   0  0  0  0  0  0  0  0  0  0  0  0
    4.8959   -3.3490    1.9562 H   0  0  0  0  0  0  0  0  0  0  0  0
    6.8084   -1.8671    2.0995 H   0  0  0  0  0  0  0  0  0  0  0  0
    4.6818    1.5835   -1.4553 H   0  0  0  0  0  0  0  0  0  0  0  0
    7.0621    2.3558   -0.5641 H   0  0  0  0  0  0  0  0  0  0  0  0
    7.8546    0.5204    1.1266 H   0  0  0  0  0  0  0  0  0  0  0  0
  1  2  1  0
  2  3  1  0
  3  4  1  0
  4  5  2  0
  5  6  1  0
  6  7  2  0
  7  8  1  0
  8  9  2  0
  9 10  1  0
 10 11  1  0
 11 12  2  0
 10 13  1  0
 13 14  1  0
 14 15  1  0
 15 16  1  0
 16 17  1  0
 17 18  1  0
 16 19  1  0
 19 20  1  0
 20 21  2  0
 21 22  1  0
 22 23  2  0
 23 24  1  0
 24 25  2  0
 25 26  1  0
 26 27  2  0
 27 28  1  0
 11  3  1  0
 18 13  1  0
 25 20  1  0
  9  4  1  0
 28 24  1  0
  1 29  1  0
  1 30  1  0
  1 31  1  0
  2 32  1  0
  2 33  1  0
  3 34  1  0
  5 35  1  0
  6 36  1  0
  7 37  1  0
  8 38  1  0
 13 39  1  0
 14 40  1  0
 14 41  1  0
 15 42  1  0
 15 43  1  0
 17 44  1  0
 17 45  1  0
 18 46  1  0
 18 47  1  0
 19 48  1  0
 19 49  1  0
 21 50  1  0
 22 51  1  0
 23 52  1  0
 26 53  1  0
 27 54  1  0
 28 55  1  0
M  END
>  <Ligand ID>  (1) 
LIG0004130

>  <Ligand>  (1) 
CHEMBL3262548

>  <SMILES>  (1) 
CCC1c2ccccc2N(C1=O)C1CCN(CC1)Cc1cccc2c1cc[nH]2

>  <CID>  (1) 
90655975.0

>  <ChEMBL ID>  (1) 
nan

>  <InChiKey>  (1) 
IHHKRBWQSBPVHH-UHFFFAOYSA-N

>  <InChi>  (1) 
InChI=1S/C24H27N3O/c1-2-19-21-7-3-4-9-23(21)27(24(19)28)18-11-14-26(15-12-18)16-17-6-5-8-22-20(17)10-13-25-22/h3-10,13,18-19,25H,2,11-12,14-16H2,1H3

>  <IUPAC Name>  (1) 
3-ethyl-1-[1-(1H-indol-4-ylmethyl)piperidin-4-yl]-3H-indol-2-one

$$$$
