
     RDKit          3D

123128  0  0  0  0  0  0  0  0999 V2000
    0.4001    4.6651   -1.4011 O   0  0  0  0  0  0  0  0  0  0  0  0
   -0.0071    5.7376   -0.9285 C   0  0  0  0  0  0  0  0  0  0  0  0
    0.8125    6.2343    0.1587 N   0  0  0  0  0  0  0  0  0  0  0  0
    2.0155    5.5253    0.5844 C   0  0  0  0  0  0  0  0  0  0  0  0
    3.0204    5.6260   -0.5173 C   0  0  0  0  0  0  0  0  0  0  0  0
    4.2988    4.8363   -0.2011 C   0  0  0  0  0  0  0  0  0  0  0  0
    4.0111    3.3913   -0.3125 C   0  0  0  0  0  0  0  0  0  0  0  0
    5.1695    2.4677    0.0792 C   0  0  1  0  0  0  0  0  0  0  0  0
    4.8043    1.0952   -0.2400 N   0  0  0  0  0  0  0  0  0  0  0  0
    4.1182    0.2356    0.6607 C   0  0  0  0  0  0  0  0  0  0  0  0
    3.8312    0.7450    1.7566 O   0  0  0  0  0  0  0  0  0  0  0  0
    3.7571   -1.1860    0.3013 C   0  0  2  0  0  0  0  0  0  0  0  0
    2.7082   -1.6191    1.2603 N   0  0  0  0  0  0  0  0  0  0  0  0
    1.3363   -1.7322    0.8014 C   0  0  0  0  0  0  0  0  0  0  0  0
    1.2043   -1.4769   -0.4095 O   0  0  0  0  0  0  0  0  0  0  0  0
    0.2391   -2.1056    1.6847 C   0  0  1  0  0  0  0  0  0  0  0  0
   -1.0421   -2.1687    0.9533 N   0  0  0  0  0  0  0  0  0  0  0  0
   -1.9449   -1.0786    1.0670 C   0  0  0  0  0  0  0  0  0  0  0  0
   -1.5752   -0.1193    1.7373 O   0  0  0  0  0  0  0  0  0  0  0  0
   -3.3216   -1.1109    0.3726 C   0  0  2  0  0  0  0  0  0  0  0  0
   -3.9135    0.2037    0.5915 N   0  0  0  0  0  0  0  0  0  0  0  0
   -3.7008    1.2291   -0.3920 C   0  0  0  0  0  0  0  0  0  0  0  0
   -3.0646    0.8453   -1.3958 O   0  0  0  0  0  0  0  0  0  0  0  0
   -4.1358    2.6117   -0.3196 C   0  0  1  0  0  0  0  0  0  0  0  0
   -3.5366    3.4212   -1.4220 N   0  0  0  0  0  0  0  0  0  0  0  0
   -2.6791    4.5155   -1.1117 C   0  0  0  0  0  0  0  0  0  0  0  0
   -2.4247    4.6757    0.0832 O   0  0  0  0  0  0  0  0  0  0  0  0
   -2.1001    5.4374   -2.1320 C   0  0  0  0  0  0  0  0  0  0  0  0
   -1.2099    6.4534   -1.4123 C   0  0  0  0  0  0  0  0  0  0  0  0
   -5.6099    2.8168   -0.4889 C   0  0  0  0  0  0  0  0  0  0  0  0
   -6.4989    2.1896    0.4880 C   0  0  0  0  0  0  0  0  0  0  0  0
   -7.1636    0.9949    0.5181 C   0  0  0  0  0  0  0  0  0  0  0  0
   -7.9025    0.8821    1.6340 N   0  0  0  0  0  0  0  0  0  0  0  0
   -7.7036    2.0212    2.3197 C   0  0  0  0  0  0  0  0  0  0  0  0
   -6.8643    2.8162    1.6471 N   0  0  0  0  0  0  0  0  0  0  0  0
   -3.9978   -2.2584    1.0078 C   0  0  0  0  0  0  0  0  0  0  0  0
   -5.3601   -2.6071    0.6045 C   0  0  0  0  0  0  0  0  0  0  0  0
   -6.4079   -2.0795    1.3435 C   0  0  0  0  0  0  0  0  0  0  0  0
   -7.7254   -2.3652    1.0600 C   0  0  0  0  0  0  0  0  0  0  0  0
   -8.0613   -3.1901    0.0257 C   0  0  0  0  0  0  0  0  0  0  0  0
   -7.0354   -3.7321   -0.7314 C   0  0  0  0  0  0  0  0  0  0  0  0
   -5.7034   -3.4370   -0.4364 C   0  0  0  0  0  0  0  0  0  0  0  0
   -7.3817   -4.5739   -1.7776 C   0  0  0  0  0  0  0  0  0  0  0  0
   -8.7273   -4.8491   -2.0371 C   0  0  0  0  0  0  0  0  0  0  0  0
   -9.7382   -4.2922   -1.2622 C   0  0  0  0  0  0  0  0  0  0  0  0
   -9.3935   -3.4517   -0.2180 C   0  0  0  0  0  0  0  0  0  0  0  0
    0.4280   -3.3812    2.4019 C   0  0  0  0  0  0  0  0  0  0  0  0
    0.5805   -4.6380    1.6224 C   0  0  0  0  0  0  0  0  0  0  0  0
    1.7733   -4.7478    0.7309 C   0  0  0  0  0  0  0  0  0  0  0  0
    1.7339   -6.0661    0.0414 N   0  0  0  0  0  0  0  0  0  0  0  0
    1.6170   -6.0252   -1.2596 C   0  0  0  0  0  0  0  0  0  0  0  0
    1.5638   -7.1918   -2.0647 N   0  0  0  0  0  0  0  0  0  0  0  0
    1.5358   -4.7664   -1.9533 N   0  0  0  0  0  0  0  0  0  0  0  0
    4.8770   -2.1577    0.5632 C   0  0  0  0  0  0  0  0  0  0  0  0
    6.1295   -1.8946   -0.1382 C   0  0  0  0  0  0  0  0  0  0  0  0
    6.5474   -2.4572   -1.3259 C   0  0  0  0  0  0  0  0  0  0  0  0
    7.7537   -1.9566   -1.6890 N   0  0  0  0  0  0  0  0  0  0  0  0
    8.1463   -1.0683   -0.7593 C   0  0  0  0  0  0  0  0  0  0  0  0
    7.1641   -1.0108    0.2074 C   0  0  0  0  0  0  0  0  0  0  0  0
    7.3622   -0.1589    1.2790 C   0  0  0  0  0  0  0  0  0  0  0  0
    8.4795    0.6265    1.4233 C   0  0  0  0  0  0  0  0  0  0  0  0
    9.4594    0.5722    0.4605 C   0  0  0  0  0  0  0  0  0  0  0  0
    9.2964   -0.2741   -0.6326 C   0  0  0  0  0  0  0  0  0  0  0  0
    6.4422    2.8949   -0.4495 C   0  0  0  0  0  0  0  0  0  0  0  0
    7.1103    2.0806   -1.1678 O   0  0  0  0  0  0  0  0  0  0  0  0
    7.0157    4.1566   -0.2309 N   0  0  0  0  0  0  0  0  0  0  0  0
    0.4613    7.0985    0.5711 H   0  0  0  0  0  0  0  0  0  0  0  0
    1.7862    4.4584    0.7936 H   0  0  0  0  0  0  0  0  0  0  0  0
    2.4107    6.0455    1.4897 H   0  0  0  0  0  0  0  0  0  0  0  0
    3.2688    6.6900   -0.7183 H   0  0  0  0  0  0  0  0  0  0  0  0
    2.6288    5.1651   -1.4393 H   0  0  0  0  0  0  0  0  0  0  0  0
    4.5552    5.1055    0.8426 H   0  0  0  0  0  0  0  0  0  0  0  0
    5.0368    5.2149   -0.9274 H   0  0  0  0  0  0  0  0  0  0  0  0
    3.8698    3.1803   -1.4178 H   0  0  0  0  0  0  0  0  0  0  0  0
    3.0802    3.0678    0.1491 H   0  0  0  0  0  0  0  0  0  0  0  0
    5.2001    2.5270    1.2178 H   0  0  0  0  0  0  0  0  0  0  0  0
    5.0310    0.6851   -1.1476 H   0  0  0  0  0  0  0  0  0  0  0  0
    3.4146   -1.2206   -0.7286 H   0  0  0  0  0  0  0  0  0  0  0  0
    2.8619   -1.8481    2.2223 H   0  0  0  0  0  0  0  0  0  0  0  0
    0.1395   -1.2994    2.4806 H   0  0  0  0  0  0  0  0  0  0  0  0
   -1.3328   -2.9373    0.3644 H   0  0  0  0  0  0  0  0  0  0  0  0
   -3.0509   -1.2174   -0.6891 H   0  0  0  0  0  0  0  0  0  0  0  0
   -4.4752    0.4836    1.3868 H   0  0  0  0  0  0  0  0  0  0  0  0
   -3.8226    3.0925    0.6525 H   0  0  0  0  0  0  0  0  0  0  0  0
   -3.6982    3.2404   -2.3999 H   0  0  0  0  0  0  0  0  0  0  0  0
   -1.4902    4.8106   -2.8189 H   0  0  0  0  0  0  0  0  0  0  0  0
   -2.8329    5.9807   -2.7261 H   0  0  0  0  0  0  0  0  0  0  0  0
   -1.7697    6.9917   -0.6408 H   0  0  0  0  0  0  0  0  0  0  0  0
   -0.8484    7.2155   -2.1354 H   0  0  0  0  0  0  0  0  0  0  0  0
   -5.9518    2.4171   -1.5031 H   0  0  0  0  0  0  0  0  0  0  0  0
   -5.8480    3.9211   -0.6071 H   0  0  0  0  0  0  0  0  0  0  0  0
   -7.0658    0.2612   -0.2961 H   0  0  0  0  0  0  0  0  0  0  0  0
   -8.1577    2.2723    3.2906 H   0  0  0  0  0  0  0  0  0  0  0  0
   -6.5356    3.7784    1.9620 H   0  0  0  0  0  0  0  0  0  0  0  0
   -3.9570   -2.1754    2.1506 H   0  0  0  0  0  0  0  0  0  0  0  0
   -3.2964   -3.1502    0.8521 H   0  0  0  0  0  0  0  0  0  0  0  0
   -6.1734   -1.4084    2.1864 H   0  0  0  0  0  0  0  0  0  0  0  0
   -8.5163   -1.9155    1.6840 H   0  0  0  0  0  0  0  0  0  0  0  0
   -4.9179   -3.8675   -1.0390 H   0  0  0  0  0  0  0  0  0  0  0  0
   -6.6149   -5.0285   -2.4026 H   0  0  0  0  0  0  0  0  0  0  0  0
   -9.0362   -5.5001   -2.8449 H   0  0  0  0  0  0  0  0  0  0  0  0
  -10.7772   -4.4691   -1.4167 H   0  0  0  0  0  0  0  0  0  0  0  0
  -10.1610   -2.9912    0.4188 H   0  0  0  0  0  0  0  0  0  0  0  0
    1.3570   -3.3434    3.0760 H   0  0  0  0  0  0  0  0  0  0  0  0
   -0.3826   -3.5363    3.1938 H   0  0  0  0  0  0  0  0  0  0  0  0
   -0.3559   -4.8846    1.0393 H   0  0  0  0  0  0  0  0  0  0  0  0
    0.6058   -5.4909    2.3806 H   0  0  0  0  0  0  0  0  0  0  0  0
    2.6616   -4.8654    1.4134 H   0  0  0  0  0  0  0  0  0  0  0  0
    1.8941   -3.9613    0.0092 H   0  0  0  0  0  0  0  0  0  0  0  0
    2.1697   -8.0212   -1.9474 H   0  0  0  0  0  0  0  0  0  0  0  0
    0.8597   -7.2024   -2.8261 H   0  0  0  0  0  0  0  0  0  0  0  0
    0.7255   -4.1398   -1.7657 H   0  0  0  0  0  0  0  0  0  0  0  0
    2.2948   -4.4882   -2.6418 H   0  0  0  0  0  0  0  0  0  0  0  0
    4.4839   -3.1545    0.1933 H   0  0  0  0  0  0  0  0  0  0  0  0
    5.0257   -2.3307    1.6555 H   0  0  0  0  0  0  0  0  0  0  0  0
    6.0174   -3.1971   -1.9181 H   0  0  0  0  0  0  0  0  0  0  0  0
    8.2811   -2.2348   -2.5651 H   0  0  0  0  0  0  0  0  0  0  0  0
    6.6015   -0.1066    2.0539 H   0  0  0  0  0  0  0  0  0  0  0  0
    8.6032    1.2846    2.2769 H   0  0  0  0  0  0  0  0  0  0  0  0
   10.3611    1.1938    0.5531 H   0  0  0  0  0  0  0  0  0  0  0  0
   10.0816   -0.3111   -1.3937 H   0  0  0  0  0  0  0  0  0  0  0  0
    6.9008    4.6736    0.6854 H   0  0  0  0  0  0  0  0  0  0  0  0
    7.5875    4.6663   -0.9420 H   0  0  0  0  0  0  0  0  0  0  0  0
  1  2  2  0
  2  3  1  0
  3  4  1  0
  4  5  1  0
  5  6  1  0
  6  7  1  0
  7  8  1  0
  8  9  1  0
  9 10  1  0
 10 11  2  0
 10 12  1  0
 12 13  1  0
 13 14  1  0
 14 15  2  0
 14 16  1  0
 16 17  1  0
 17 18  1  0
 18 19  2  0
 18 20  1  0
 20 21  1  0
 21 22  1  0
 22 23  2  0
 22 24  1  0
 24 25  1  0
 25 26  1  0
 26 27  2  0
 26 28  1  0
 28 29  1  0
 24 30  1  0
 30 31  1  0
 31 32  2  0
 32 33  1  0
 33 34  2  0
 34 35  1  0
 20 36  1  0
 36 37  1  0
 37 38  2  0
 38 39  1  0
 39 40  2  0
 40 41  1  0
 41 42  2  0
 41 43  1  0
 43 44  2  0
 44 45  1  0
 45 46  2  0
 16 47  1  0
 47 48  1  0
 48 49  1  0
 49 50  1  0
 50 51  2  3
 51 52  1  0
 51 53  1  0
 12 54  1  0
 54 55  1  0
 55 56  2  0
 56 57  1  0
 57 58  1  0
 58 59  2  0
 59 60  1  0
 60 61  2  0
 61 62  1  0
 62 63  2  0
  8 64  1  0
 64 65  2  0
 64 66  1  0
 29  2  1  0
 35 31  1  0
 42 37  1  0
 59 55  1  0
 46 40  1  0
 63 58  1  0
  3 67  1  0
  4 68  1  0
  4 69  1  0
  5 70  1  0
  5 71  1  0
  6 72  1  0
  6 73  1  0
  7 74  1  0
  7 75  1  0
  8 76  1  1
  9 77  1  0
 12 78  1  6
 13 79  1  0
 16 80  1  1
 17 81  1  0
 20 82  1  6
 21 83  1  0
 24 84  1  1
 25 85  1  0
 28 86  1  0
 28 87  1  0
 29 88  1  0
 29 89  1  0
 30 90  1  0
 30 91  1  0
 32 92  1  0
 34 93  1  0
 35 94  1  0
 36 95  1  0
 36 96  1  0
 38 97  1  0
 39 98  1  0
 42 99  1  0
 43100  1  0
 44101  1  0
 45102  1  0
 46103  1  0
 47104  1  0
 47105  1  0
 48106  1  0
 48107  1  0
 49108  1  0
 49109  1  0
 52110  1  0
 52111  1  0
 53112  1  0
 53113  1  0
 54114  1  0
 54115  1  0
 56116  1  0
 57117  1  0
 60118  1  0
 61119  1  0
 62120  1  0
 63121  1  0
 66122  1  0
 66123  1  0
M  END
>  <Ligand ID>  (1) 
LIG0003110

>  <Ligand>  (1) 
CHEMBL432377

>  <SMILES>  (1) 
O=C1NCCCC[C@@H](NC(=O)[C@H](NC(=O)[C@@H](NC(=O)[C@H](NC(=O)[C@@H](NC(=O)CC1)Cc1cnc[nH]1)Cc1ccc2c(c1)cccc2)CCCN=C(N)N)Cc1c[nH]c2c1cccc2)C(=O)N

>  <CID>  (1) 
44323234.0

>  <ChEMBL ID>  (1) 
nan

>  <InChiKey>  (1) 
HAIHKNYZIMVIIW-GSPXPSQGSA-N

>  <InChi>  (1) 
InChI=1S/C46H57N13O7/c47-41(62)34-12-5-6-18-51-39(60)16-17-40(61)55-38(23-31-25-50-26-54-31)45(66)58-36(21-27-14-15-28-8-1-2-9-29(28)20-27)43(64)57-35(13-7-19-52-46(48)49)42(63)59-37(44(65)56-34)22-30-24-53-33-11-4-3-10-32(30)33/h1-4,8-11,14-15,20,24-26,34-38,53H,5-7,12-13,16-19,21-23H2,(H2,47,62)(H,50,54)(H,51,60)(H,55,61)(H,56,65)(H,57,64)(H,58,66)(H,59,63)(H4,48,49,52)/t34-,35+,36-,37-,38+/m1/s1

>  <IUPAC Name>  (1) 
(3R,6S,9R,12S,23R)-6-[3-(diaminomethylideneamino)propyl]-12-(1H-imidazol-5-ylmethyl)-3-(1H-indol-3-ylmethyl)-9-(naphthalen-2-ylmethyl)-2,5,8,11,14,17-hexaoxo-1,4,7,10,13,18-hexazacyclotricosane-23-carboxamide

$$$$
