
     RDKit          3D

 26 26  0  0  0  0  0  0  0  0999 V2000
   -2.2977    1.1163   -0.1879 N   0  0  0  0  0  0  0  0  0  0  0  0
   -1.8081   -0.1933    0.0443 C   0  0  2  0  0  0  0  0  0  0  0  0
   -2.9020   -0.9136    0.8210 C   0  0  0  0  0  0  0  0  0  0  0  0
   -3.9653   -0.3184    1.1175 O   0  0  0  0  0  0  0  0  0  0  0  0
   -2.7460   -2.2311    1.2131 O   0  0  0  0  0  0  0  0  0  0  0  0
   -0.5668   -0.4013    0.7863 C   0  0  0  0  0  0  0  0  0  0  0  0
    0.7276    0.1809    0.2498 C   0  0  1  0  0  0  0  0  0  0  0  0
    1.8744   -0.2686    1.2159 C   0  0  0  0  0  0  0  0  0  0  0  0
    1.7775   -0.6887   -0.2460 C   0  0  2  0  0  0  0  0  0  0  0  0
    2.9384   -0.2811   -1.0303 C   0  0  0  0  0  0  0  0  0  0  0  0
    3.5629    0.8028   -0.9722 O   0  0  0  0  0  0  0  0  0  0  0  0
    3.4729   -1.1841   -1.9972 O   0  0  0  0  0  0  0  0  0  0  0  0
    0.7212    1.6283   -0.0092 C   0  0  0  0  0  0  0  0  0  0  0  0
    1.6907    2.2564   -0.5670 O   0  0  0  0  0  0  0  0  0  0  0  0
   -0.3353    2.4809    0.3270 O   0  0  0  0  0  0  0  0  0  0  0  0
   -2.7280    1.2548   -1.1311 H   0  0  0  0  0  0  0  0  0  0  0  0
   -2.8918    1.4989    0.5781 H   0  0  0  0  0  0  0  0  0  0  0  0
   -1.7657   -0.6860   -0.9813 H   0  0  0  0  0  0  0  0  0  0  0  0
   -3.5540   -2.8333    1.2351 H   0  0  0  0  0  0  0  0  0  0  0  0
   -0.6815    0.0836    1.8045 H   0  0  0  0  0  0  0  0  0  0  0  0
   -0.3686   -1.4746    1.0516 H   0  0  0  0  0  0  0  0  0  0  0  0
    2.5779    0.5166    1.4965 H   0  0  0  0  0  0  0  0  0  0  0  0
    1.6882   -1.0732    1.9161 H   0  0  0  0  0  0  0  0  0  0  0  0
    1.5048   -1.7893   -0.4386 H   0  0  0  0  0  0  0  0  0  0  0  0
    4.1641   -0.8692   -2.6724 H   0  0  0  0  0  0  0  0  0  0  0  0
   -0.0897    3.3866    0.7051 H   0  0  0  0  0  0  0  0  0  0  0  0
  1  2  1  0
  2  3  1  0
  3  4  2  0
  3  5  1  0
  2  6  1  0
  7  6  1  1
  7  8  1  0
  8  9  1  0
  9 10  1  0
 10 11  2  0
 10 12  1  0
  7 13  1  0
 13 14  2  0
 13 15  1  0
  9  7  1  0
  1 16  1  0
  1 17  1  0
  2 18  1  6
  5 19  1  0
  6 20  1  0
  6 21  1  0
  8 22  1  0
  8 23  1  0
  9 24  1  1
 12 25  1  0
 15 26  1  0
M  END
>  <Ligand ID>  (1) 
LIG0000428

>  <Ligand>  (1) 
CHEMBL3786026

>  <SMILES>  (1) 
N[C@H](C(=O)O)C[C@]1(C[C@@H]1C(=O)O)C(=O)O

>  <CID>  (1) 
127030386.0

>  <ChEMBL ID>  (1) 
nan

>  <InChiKey>  (1) 
BHSHZTNHTMTQFY-ZPLJKJSBSA-N

>  <InChi>  (1) 
InChI=1S/C8H11NO6/c9-4(6(12)13)2-8(7(14)15)1-3(8)5(10)11/h3-4H,1-2,9H2,(H,10,11)(H,12,13)(H,14,15)/t3-,4+,8+/m1/s1

>  <IUPAC Name>  (1) 
(1S,2S)-1-[(2S)-2-amino-2-carboxyethyl]cyclopropane-1,2-dicarboxylic acid

$$$$
