
     RDKit          3D

123127  0  0  0  0  0  0  0  0999 V2000
    0.3764   -1.3720   -5.7365 C   0  0  0  0  0  0  0  0  0  0  0  0
   -0.2726   -1.3469   -4.3324 C   0  0  0  0  0  0  0  0  0  0  0  0
    0.3987   -0.3620   -3.5163 C   0  0  0  0  0  0  0  0  0  0  0  0
    0.0719   -0.0452   -2.1262 C   0  0  1  0  0  0  0  0  0  0  0  0
   -1.2680    0.4642   -1.8078 C   0  0  0  0  0  0  0  0  0  0  0  0
   -1.8704    1.1737   -2.6952 O   0  0  0  0  0  0  0  0  0  0  0  0
   -1.9781    0.2585   -0.6044 N   0  0  0  0  0  0  0  0  0  0  0  0
   -3.2966    0.7847   -0.3300 C   0  0  2  0  0  0  0  0  0  0  0  0
   -3.3092    1.5907    0.9251 C   0  0  0  0  0  0  0  0  0  0  0  0
   -2.2749    1.8146    1.6038 O   0  0  0  0  0  0  0  0  0  0  0  0
   -4.5130    2.1183    1.3688 O   0  0  0  0  0  0  0  0  0  0  0  0
   -4.6799    2.8910    2.5281 C   0  0  0  0  0  0  0  0  0  0  0  0
   -6.0905    3.2980    2.7499 C   0  0  0  0  0  0  0  0  0  0  0  0
   -6.6333    4.4686    2.2618 C   0  0  0  0  0  0  0  0  0  0  0  0
   -7.9677    4.6944    2.5526 C   0  0  0  0  0  0  0  0  0  0  0  0
   -8.7370    3.8126    3.2889 C   0  0  0  0  0  0  0  0  0  0  0  0
   -8.1893    2.6476    3.7716 C   0  0  0  0  0  0  0  0  0  0  0  0
   -6.8680    2.4061    3.4943 C   0  0  0  0  0  0  0  0  0  0  0  0
   -8.9656    1.6674    4.5643 C   0  0  0  0  0  0  0  0  0  0  0  0
   -9.8052    2.2936    5.4385 F   0  0  0  0  0  0  0  0  0  0  0  0
   -8.1028    0.8566    5.3097 F   0  0  0  0  0  0  0  0  0  0  0  0
   -9.6964    0.8613    3.7139 F   0  0  0  0  0  0  0  0  0  0  0  0
   -8.6178    5.9415    2.0593 C   0  0  0  0  0  0  0  0  0  0  0  0
   -8.4100    6.0708    0.7028 F   0  0  0  0  0  0  0  0  0  0  0  0
   -8.0331    6.9933    2.6974 F   0  0  0  0  0  0  0  0  0  0  0  0
   -9.9567    5.9534    2.3341 F   0  0  0  0  0  0  0  0  0  0  0  0
   -4.3805   -0.2338   -0.2142 C   0  0  0  0  0  0  0  0  0  0  0  0
   -4.6179   -1.0612   -1.4036 C   0  0  0  0  0  0  0  0  0  0  0  0
   -4.2784   -2.3798   -1.5986 C   0  0  0  0  0  0  0  0  0  0  0  0
   -4.6699   -2.8023   -2.8101 N   0  0  0  0  0  0  0  0  0  0  0  0
   -5.2759   -1.7904   -3.4524 C   0  0  0  0  0  0  0  0  0  0  0  0
   -5.2558   -0.6911   -2.5951 C   0  0  0  0  0  0  0  0  0  0  0  0
   -5.8223    0.4909   -3.0221 C   0  0  0  0  0  0  0  0  0  0  0  0
   -6.3854    0.5350   -4.2813 C   0  0  0  0  0  0  0  0  0  0  0  0
   -6.4066   -0.5543   -5.1337 C   0  0  0  0  0  0  0  0  0  0  0  0
   -5.8409   -1.7385   -4.7095 C   0  0  0  0  0  0  0  0  0  0  0  0
    0.6470   -0.9364   -1.1361 N   0  0  0  0  0  0  0  0  0  0  0  0
    0.0002   -2.1415   -0.7050 C   0  0  0  0  0  0  0  0  0  0  0  0
   -1.0889   -2.5447   -1.1252 O   0  0  0  0  0  0  0  0  0  0  0  0
    0.6663   -3.0161    0.3443 C   0  0  2  0  0  0  0  0  0  0  0  0
   -0.2422   -3.2368    1.5032 C   0  0  0  0  0  0  0  0  0  0  0  0
    0.3303   -4.0842    2.5776 C   0  0  0  0  0  0  0  0  0  0  0  0
    1.0053   -3.5741    3.6605 C   0  0  0  0  0  0  0  0  0  0  0  0
    1.5422   -4.3561    4.6657 C   0  0  0  0  0  0  0  0  0  0  0  0
    1.3757   -5.7286    4.5472 C   0  0  0  0  0  0  0  0  0  0  0  0
    0.7044   -6.3025    3.4776 C   0  0  0  0  0  0  0  0  0  0  0  0
    0.1926   -5.4623    2.5092 C   0  0  0  0  0  0  0  0  0  0  0  0
    1.9618   -2.4869    0.6504 N   0  0  0  0  0  0  0  0  0  0  0  0
    3.1001   -3.2394    0.2632 C   0  0  0  0  0  0  0  0  0  0  0  0
    2.8847   -4.3592   -0.3326 O   0  0  0  0  0  0  0  0  0  0  0  0
    4.4980   -2.8797    0.4640 C   0  0  0  0  0  0  0  0  0  0  0  0
    4.7855   -1.6545    1.1208 N   0  0  0  0  0  0  0  0  0  0  0  0
    4.4480   -1.2928    2.4374 C   0  0  0  0  0  0  0  0  0  0  0  0
    3.8187   -2.0931    3.1749 O   0  0  0  0  0  0  0  0  0  0  0  0
    4.7945    0.0271    3.0541 C   0  0  2  0  0  0  0  0  0  0  0  0
    5.5439    0.8624    2.1573 N   0  0  0  0  0  0  0  0  0  0  0  0
    6.8701    0.4968    1.7757 C   0  0  0  0  0  0  0  0  0  0  0  0
    7.4501   -0.5380    2.1821 O   0  0  0  0  0  0  0  0  0  0  0  0
    7.6574    1.3625    0.8375 C   0  0  2  0  0  0  0  0  0  0  0  0
    6.8399    1.7513   -0.3744 C   0  0  0  0  0  0  0  0  0  0  0  0
    7.5780    2.5965   -1.3245 C   0  0  0  0  0  0  0  0  0  0  0  0
    8.2907    2.0461   -2.3704 C   0  0  0  0  0  0  0  0  0  0  0  0
    8.9799    2.8850   -3.2449 C   0  0  0  0  0  0  0  0  0  0  0  0
    8.9661    4.2443   -3.0902 C   0  0  0  0  0  0  0  0  0  0  0  0
    8.2611    4.8077   -2.0535 C   0  0  0  0  0  0  0  0  0  0  0  0
    7.5844    3.9540   -1.1980 C   0  0  0  0  0  0  0  0  0  0  0  0
    9.6449    5.0774   -3.9509 O   0  0  0  0  0  0  0  0  0  0  0  0
    8.8232    0.6278    0.4342 N   0  0  0  0  0  0  0  0  0  0  0  0
    5.4420   -0.1599    4.4011 C   0  0  0  0  0  0  0  0  0  0  0  0
   -1.7201   -1.3009   -4.6028 C   0  0  0  0  0  0  0  0  0  0  0  0
   -0.0237   -0.5909   -6.3811 H   0  0  0  0  0  0  0  0  0  0  0  0
    0.1705   -2.3418   -6.2324 H   0  0  0  0  0  0  0  0  0  0  0  0
    1.4680   -1.3291   -5.5728 H   0  0  0  0  0  0  0  0  0  0  0  0
   -0.0518   -2.4088   -3.9960 H   0  0  0  0  0  0  0  0  0  0  0  0
    0.4595    0.5918   -4.1295 H   0  0  0  0  0  0  0  0  0  0  0  0
    1.4952   -0.6592   -3.5010 H   0  0  0  0  0  0  0  0  0  0  0  0
    0.6995    0.9039   -1.9151 H   0  0  0  0  0  0  0  0  0  0  0  0
   -1.5382   -0.2955    0.1716 H   0  0  0  0  0  0  0  0  0  0  0  0
   -3.5200    1.4565   -1.2161 H   0  0  0  0  0  0  0  0  0  0  0  0
   -4.2666    2.4029    3.4542 H   0  0  0  0  0  0  0  0  0  0  0  0
   -4.0562    3.8232    2.3943 H   0  0  0  0  0  0  0  0  0  0  0  0
   -6.0194    5.1455    1.6909 H   0  0  0  0  0  0  0  0  0  0  0  0
   -9.7696    4.0013    3.5069 H   0  0  0  0  0  0  0  0  0  0  0  0
   -6.4306    1.4761    3.8797 H   0  0  0  0  0  0  0  0  0  0  0  0
   -4.2128   -0.9290    0.6554 H   0  0  0  0  0  0  0  0  0  0  0  0
   -5.3587    0.2608    0.0237 H   0  0  0  0  0  0  0  0  0  0  0  0
   -3.7741   -2.9705   -0.8678 H   0  0  0  0  0  0  0  0  0  0  0  0
   -4.5152   -3.7718   -3.1714 H   0  0  0  0  0  0  0  0  0  0  0  0
   -5.8152    1.3579   -2.3667 H   0  0  0  0  0  0  0  0  0  0  0  0
   -6.8227    1.4598   -4.5989 H   0  0  0  0  0  0  0  0  0  0  0  0
   -6.8486   -0.5266   -6.1243 H   0  0  0  0  0  0  0  0  0  0  0  0
   -5.8188   -2.6315   -5.3230 H   0  0  0  0  0  0  0  0  0  0  0  0
    1.5820   -0.7577   -0.6680 H   0  0  0  0  0  0  0  0  0  0  0  0
    0.7685   -3.9956   -0.1769 H   0  0  0  0  0  0  0  0  0  0  0  0
   -0.5830   -2.2529    1.8885 H   0  0  0  0  0  0  0  0  0  0  0  0
   -1.1749   -3.7648    1.1816 H   0  0  0  0  0  0  0  0  0  0  0  0
    1.0987   -2.4780    3.6866 H   0  0  0  0  0  0  0  0  0  0  0  0
    2.0680   -3.9248    5.5075 H   0  0  0  0  0  0  0  0  0  0  0  0
    1.8071   -6.3253    5.3533 H   0  0  0  0  0  0  0  0  0  0  0  0
    0.5995   -7.3702    3.4296 H   0  0  0  0  0  0  0  0  0  0  0  0
   -0.3333   -5.9282    1.6730 H   0  0  0  0  0  0  0  0  0  0  0  0
    2.1035   -1.5763    1.1340 H   0  0  0  0  0  0  0  0  0  0  0  0
    4.9457   -3.7177    1.0942 H   0  0  0  0  0  0  0  0  0  0  0  0
    5.0997   -2.9719   -0.4898 H   0  0  0  0  0  0  0  0  0  0  0  0
    5.3077   -0.9171    0.5556 H   0  0  0  0  0  0  0  0  0  0  0  0
    3.7987    0.5032    3.2715 H   0  0  0  0  0  0  0  0  0  0  0  0
    5.1182    1.7527    1.7748 H   0  0  0  0  0  0  0  0  0  0  0  0
    7.9932    2.2788    1.3949 H   0  0  0  0  0  0  0  0  0  0  0  0
    6.4472    0.8545   -0.8798 H   0  0  0  0  0  0  0  0  0  0  0  0
    5.9423    2.3406   -0.0206 H   0  0  0  0  0  0  0  0  0  0  0  0
    8.3359    0.9855   -2.5413 H   0  0  0  0  0  0  0  0  0  0  0  0
    9.5390    2.4315   -4.0704 H   0  0  0  0  0  0  0  0  0  0  0  0
    8.2084    5.8799   -1.8700 H   0  0  0  0  0  0  0  0  0  0  0  0
    7.0242    4.4134   -0.3749 H   0  0  0  0  0  0  0  0  0  0  0  0
   10.6319    5.2591   -3.7307 H   0  0  0  0  0  0  0  0  0  0  0  0
    8.6362   -0.0118   -0.3806 H   0  0  0  0  0  0  0  0  0  0  0  0
    9.1707    0.0187    1.2264 H   0  0  0  0  0  0  0  0  0  0  0  0
    5.2158    0.7743    4.9936 H   0  0  0  0  0  0  0  0  0  0  0  0
    5.0377   -1.0528    4.8898 H   0  0  0  0  0  0  0  0  0  0  0  0
    6.5355   -0.1868    4.2821 H   0  0  0  0  0  0  0  0  0  0  0  0
   -2.0489   -2.0894   -5.3509 H   0  0  0  0  0  0  0  0  0  0  0  0
   -1.9455   -0.3655   -5.1616 H   0  0  0  0  0  0  0  0  0  0  0  0
   -2.3930   -1.2915   -3.7275 H   0  0  0  0  0  0  0  0  0  0  0  0
  1  2  1  0
  2  3  1  0
  3  4  1  0
  4  5  1  0
  5  6  2  0
  5  7  1  0
  7  8  1  0
  8  9  1  0
  9 10  2  0
  9 11  1  0
 11 12  1  0
 12 13  1  0
 13 14  2  0
 14 15  1  0
 15 16  2  0
 16 17  1  0
 17 18  2  0
 17 19  1  0
 19 20  1  0
 19 21  1  0
 19 22  1  0
 15 23  1  0
 23 24  1  0
 23 25  1  0
 23 26  1  0
  8 27  1  0
 27 28  1  0
 28 29  2  0
 29 30  1  0
 30 31  1  0
 31 32  2  0
 32 33  1  0
 33 34  2  0
 34 35  1  0
 35 36  2  0
  4 37  1  0
 37 38  1  0
 38 39  2  0
 38 40  1  0
 40 41  1  0
 41 42  1  0
 42 43  2  0
 43 44  1  0
 44 45  2  0
 45 46  1  0
 46 47  2  0
 40 48  1  0
 48 49  1  0
 49 50  2  0
 49 51  1  0
 51 52  1  0
 52 53  1  0
 53 54  2  0
 53 55  1  0
 55 56  1  0
 56 57  1  0
 57 58  2  0
 57 59  1  0
 59 60  1  0
 60 61  1  0
 61 62  2  0
 62 63  1  0
 63 64  2  0
 64 65  1  0
 65 66  2  0
 64 67  1  0
 59 68  1  0
 55 69  1  0
  2 70  1  0
 18 13  1  0
 32 28  1  0
 47 42  1  0
 66 61  1  0
 36 31  1  0
  1 71  1  0
  1 72  1  0
  1 73  1  0
  2 74  1  0
  3 75  1  0
  3 76  1  0
  4 77  1  1
  7 78  1  0
  8 79  1  6
 12 80  1  0
 12 81  1  0
 14 82  1  0
 16 83  1  0
 18 84  1  0
 27 85  1  0
 27 86  1  0
 29 87  1  0
 30 88  1  0
 33 89  1  0
 34 90  1  0
 35 91  1  0
 36 92  1  0
 37 93  1  0
 40 94  1  6
 41 95  1  0
 41 96  1  0
 43 97  1  0
 44 98  1  0
 45 99  1  0
 46100  1  0
 47101  1  0
 48102  1  0
 51103  1  0
 51104  1  0
 52105  1  0
 55106  1  1
 56107  1  0
 59108  1  1
 60109  1  0
 60110  1  0
 62111  1  0
 63112  1  0
 65113  1  0
 66114  1  0
 67115  1  0
 68116  1  0
 68117  1  0
 69118  1  0
 69119  1  0
 69120  1  0
 70121  1  0
 70122  1  0
 70123  1  0
M  END
>  <Ligand ID>  (1) 
LIG0005372

>  <Ligand>  (1) 
CHEMBL2419542

>  <SMILES>  (1) 
CC(C[C@@H](C(=O)N[C@H](C(=O)OCc1cc(cc(c1)C(F)(F)F)C(F)(F)F)Cc1c[nH]c2c1cccc2)NC(=O)[C@H](Cc1ccccc1)NC(=O)CNC(=O)[C@H](NC(=O)[C@H](Cc1ccc(cc1)O)N)C)C

>  <CID>  (1) 
44177994.0

>  <ChEMBL ID>  (1) 
nan

>  <InChiKey>  (1) 
CJYLEVUNMXXSAG-ZTNHBREUSA-N

>  <InChi>  (1) 
InChI=1S/C49H53F6N7O8/c1-27(2)17-39(45(67)62-41(22-32-24-57-38-12-8-7-11-36(32)38)47(69)70-26-31-18-33(48(50,51)52)23-34(19-31)49(53,54)55)61-46(68)40(21-29-9-5-4-6-10-29)60-42(64)25-58-43(65)28(3)59-44(66)37(56)20-30-13-15-35(63)16-14-30/h4-16,18-19,23-24,27-28,37,39-41,57,63H,17,20-22,25-26,56H2,1-3H3,(H,58,65)(H,59,66)(H,60,64)(H,61,68)(H,62,67)/t28-,37+,39+,40+,41+/m1/s1

>  <IUPAC Name>  (1) 
[3,5-bis(trifluoromethyl)phenyl]methyl (2S)-2-[[(2S)-2-[[(2S)-2-[[2-[[(2R)-2-[[(2S)-2-amino-3-(4-hydroxyphenyl)propanoyl]amino]propanoyl]amino]acetyl]amino]-3-phenylpropanoyl]amino]-4-methylpentanoyl]amino]-3-(1H-indol-3-yl)propanoate

$$$$
