
     RDKit          3D

 56 58  0  0  0  0  0  0  0  0999 V2000
    2.0692   -2.8680   -1.1240 C   0  0  0  0  0  0  0  0  0  0  0  0
    2.8636   -1.6568   -0.7933 C   0  0  0  0  0  0  0  0  0  0  0  0
    4.2573   -1.7985   -0.7790 C   0  0  0  0  0  0  0  0  0  0  0  0
    5.0995   -0.7564   -0.4890 C   0  0  0  0  0  0  0  0  0  0  0  0
    4.5283    0.4608   -0.2057 C   0  0  0  0  0  0  0  0  0  0  0  0
    3.1452    0.6032   -0.2194 C   0  0  0  0  0  0  0  0  0  0  0  0
    2.2893   -0.4353   -0.5090 C   0  0  0  0  0  0  0  0  0  0  0  0
    0.8397   -0.2865   -0.5232 C   0  0  0  0  0  0  0  0  0  0  0  0
    0.2285    0.9260   -0.2433 C   0  0  0  0  0  0  0  0  0  0  0  0
   -1.1545    1.0597   -0.2588 C   0  0  0  0  0  0  0  0  0  0  0  0
   -1.9656   -0.0183   -0.5551 C   0  0  0  0  0  0  0  0  0  0  0  0
   -1.3312   -1.2108   -0.8297 C   0  0  0  0  0  0  0  0  0  0  0  0
   -0.0018   -1.3076   -0.8069 N   0  0  0  0  0  0  0  0  0  0  0  0
   -2.3175   -2.0881   -1.0903 N   0  0  0  0  0  0  0  0  0  0  0  0
   -2.1080   -3.4933   -1.4358 C   0  0  0  0  0  0  0  0  0  0  0  0
   -3.4960   -1.4480   -0.9766 C   0  0  0  0  0  0  0  0  0  0  0  0
   -4.5942   -2.0550   -1.1744 O   0  0  0  0  0  0  0  0  0  0  0  0
   -3.3018   -0.1525   -0.6420 N   0  0  0  0  0  0  0  0  0  0  0  0
   -4.3464    0.8252   -0.4534 C   0  0  0  0  0  0  0  0  0  0  0  0
   -4.8577    0.8171    0.9558 C   0  0  0  0  0  0  0  0  0  0  0  0
   -5.4333   -0.5558    1.3124 C   0  0  0  0  0  0  0  0  0  0  0  0
   -3.7113    1.0353    1.9076 C   0  0  0  0  0  0  0  0  0  0  0  0
   -5.9097    1.8852    1.1636 C   0  0  0  0  0  0  0  0  0  0  0  0
    5.3920    1.6225    0.1149 C   0  0  0  0  0  0  0  0  0  0  0  0
    6.1859    1.9193   -1.0138 O   0  0  0  0  0  0  0  0  0  0  0  0
    4.5506    2.8516    0.3917 C   0  0  0  0  0  0  0  0  0  0  0  0
    6.3195    1.3261    1.2540 C   0  0  0  0  0  0  0  0  0  0  0  0
    1.4016   -3.1307   -0.2809 H   0  0  0  0  0  0  0  0  0  0  0  0
    2.7439   -3.7147   -1.3919 H   0  0  0  0  0  0  0  0  0  0  0  0
    1.4545   -2.6999   -2.0315 H   0  0  0  0  0  0  0  0  0  0  0  0
    4.7145   -2.7598   -1.0025 H   0  0  0  0  0  0  0  0  0  0  0  0
    6.1682   -0.9077   -0.4887 H   0  0  0  0  0  0  0  0  0  0  0  0
    2.7729    1.5812    0.0113 H   0  0  0  0  0  0  0  0  0  0  0  0
    0.7837    1.8148   -0.0028 H   0  0  0  0  0  0  0  0  0  0  0  0
   -1.6042    2.0124   -0.0431 H   0  0  0  0  0  0  0  0  0  0  0  0
   -1.9656   -3.5737   -2.5509 H   0  0  0  0  0  0  0  0  0  0  0  0
   -3.0357   -4.0504   -1.2180 H   0  0  0  0  0  0  0  0  0  0  0  0
   -1.2018   -3.9102   -0.9895 H   0  0  0  0  0  0  0  0  0  0  0  0
   -5.1643    0.7091   -1.2035 H   0  0  0  0  0  0  0  0  0  0  0  0
   -3.9259    1.8481   -0.6856 H   0  0  0  0  0  0  0  0  0  0  0  0
   -4.6061   -1.2499    1.4458 H   0  0  0  0  0  0  0  0  0  0  0  0
   -5.8974   -0.4394    2.3286 H   0  0  0  0  0  0  0  0  0  0  0  0
   -6.2503   -0.8663    0.6579 H   0  0  0  0  0  0  0  0  0  0  0  0
   -3.2179    2.0024    1.6864 H   0  0  0  0  0  0  0  0  0  0  0  0
   -2.9616    0.2433    1.8125 H   0  0  0  0  0  0  0  0  0  0  0  0
   -4.0860    1.0975    2.9661 H   0  0  0  0  0  0  0  0  0  0  0  0
   -5.7844    2.4641    2.0924 H   0  0  0  0  0  0  0  0  0  0  0  0
   -5.8702    2.5557    0.2845 H   0  0  0  0  0  0  0  0  0  0  0  0
   -6.9190    1.4010    1.2417 H   0  0  0  0  0  0  0  0  0  0  0  0
    6.2684    1.1043   -1.5819 H   0  0  0  0  0  0  0  0  0  0  0  0
    5.2840    3.6897    0.5642 H   0  0  0  0  0  0  0  0  0  0  0  0
    3.9965    3.1356   -0.5221 H   0  0  0  0  0  0  0  0  0  0  0  0
    3.9019    2.7202    1.2731 H   0  0  0  0  0  0  0  0  0  0  0  0
    6.4455    0.2222    1.4051 H   0  0  0  0  0  0  0  0  0  0  0  0
    5.9664    1.7893    2.2073 H   0  0  0  0  0  0  0  0  0  0  0  0
    7.3488    1.7108    1.0387 H   0  0  0  0  0  0  0  0  0  0  0  0
  1  2  1  0
  2  3  2  0
  3  4  1  0
  4  5  2  0
  5  6  1  0
  6  7  2  0
  7  8  1  0
  8  9  2  0
  9 10  1  0
 10 11  2  0
 11 12  1  0
 12 13  2  0
 12 14  1  0
 14 15  1  0
 14 16  1  0
 16 17  2  0
 16 18  1  0
 18 19  1  0
 19 20  1  0
 20 21  1  0
 20 22  1  0
 20 23  1  0
  5 24  1  0
 24 25  1  0
 24 26  1  0
 24 27  1  0
  7  2  1  0
 13  8  1  0
 18 11  1  0
  1 28  1  0
  1 29  1  0
  1 30  1  0
  3 31  1  0
  4 32  1  0
  6 33  1  0
  9 34  1  0
 10 35  1  0
 15 36  1  0
 15 37  1  0
 15 38  1  0
 19 39  1  0
 19 40  1  0
 21 41  1  0
 21 42  1  0
 21 43  1  0
 22 44  1  0
 22 45  1  0
 22 46  1  0
 23 47  1  0
 23 48  1  0
 23 49  1  0
 25 50  1  0
 26 51  1  0
 26 52  1  0
 26 53  1  0
 27 54  1  0
 27 55  1  0
 27 56  1  0
M  END
>  <Ligand ID>  (1) 
LIG0000689

>  <Ligand>  (1) 
CHEMBL3765778

>  <SMILES>  (1) 
Cc1ccc(cc1c1ccc2c(n1)n(C)c(=O)n2CC(C)(C)C)C(O)(C)C

>  <CID>  (1) 
54761054.0

>  <ChEMBL ID>  (1) 
nan

>  <InChiKey>  (1) 
QLTCKDVHRJIRHT-UHFFFAOYSA-N

>  <InChi>  (1) 
InChI=1S/C22H29N3O2/c1-14-8-9-15(22(5,6)27)12-16(14)17-10-11-18-19(23-17)24(7)20(26)25(18)13-21(2,3)4/h8-12,27H,13H2,1-7H3

>  <IUPAC Name>  (1) 
1-(2,2-dimethylpropyl)-5-[5-(2-hydroxypropan-2-yl)-2-methylphenyl]-3-methylimidazo[4,5-b]pyridin-2-one

$$$$
