
     RDKit          3D

130132  0  0  0  0  0  0  0  0999 V2000
    9.7012    2.1822    0.8282 N   0  0  0  0  0  0  0  0  0  0  0  0
    9.9025    1.3879    2.0264 C   0  0  0  0  0  0  0  0  0  0  0  0
    8.7194    0.5232    2.3433 C   0  0  0  0  0  0  0  0  0  0  0  0
    8.4332   -0.3893    1.1733 C   0  0  1  0  0  0  0  0  0  0  0  0
    9.5417   -1.2783    0.8558 C   0  0  0  0  0  0  0  0  0  0  0  0
   10.7140   -0.8875    0.5157 O   0  0  0  0  0  0  0  0  0  0  0  0
    9.4168   -2.7168    0.8979 N   0  0  0  0  0  0  0  0  0  0  0  0
   10.5969   -3.4956    0.5589 C   0  0  0  0  0  0  0  0  0  0  0  0
   11.0431   -3.2289   -0.8297 C   0  0  0  0  0  0  0  0  0  0  0  0
   12.0742   -3.8598   -1.2181 O   0  0  0  0  0  0  0  0  0  0  0  0
   10.3743   -2.3223   -1.7042 N   0  0  0  0  0  0  0  0  0  0  0  0
    7.2069   -1.1451    1.4044 N   0  0  0  0  0  0  0  0  0  0  0  0
    6.0248   -0.6425    0.7849 C   0  0  0  0  0  0  0  0  0  0  0  0
    6.0397    0.4184    0.0748 O   0  0  0  0  0  0  0  0  0  0  0  0
    4.7082   -1.3191    0.9268 C   0  0  2  0  0  0  0  0  0  0  0  0
    4.5864   -2.3863   -0.1737 C   0  0  0  0  0  0  0  0  0  0  0  0
    4.6467   -1.4634   -1.3883 C   0  0  0  0  0  0  0  0  0  0  0  0
    3.7414   -0.2829   -0.9990 C   0  0  0  0  0  0  0  0  0  0  0  0
    3.6431   -0.3897    0.4159 N   0  0  0  0  0  0  0  0  0  0  0  0
    2.7829    0.2216    1.3673 C   0  0  0  0  0  0  0  0  0  0  0  0
    2.9766   -0.2375    2.5967 O   0  0  0  0  0  0  0  0  0  0  0  0
    1.7663    1.2101    1.2887 C   0  0  2  0  0  0  0  0  0  0  0  0
    0.3352    0.6421    1.3646 C   0  0  0  0  0  0  0  0  0  0  0  0
    0.0940   -0.5394    2.6598 S   0  0  0  0  0  0  0  0  0  0  0  0
    1.0706   -2.3980    2.0588 S   0  0  0  0  0  0  0  0  0  0  0  0
   -0.1643   -3.2991    1.0244 C   0  0  0  0  0  0  0  0  0  0  0  0
   -1.3235   -3.6615    1.9486 C   0  0  2  0  0  0  0  0  0  0  0  0
   -0.8573   -4.7173    2.7819 N   0  0  0  0  0  0  0  0  0  0  0  0
   -2.5361   -3.9518    1.1624 C   0  0  0  0  0  0  0  0  0  0  0  0
   -2.9177   -5.0459    0.7507 O   0  0  0  0  0  0  0  0  0  0  0  0
   -3.4285   -2.8482    0.8103 N   0  0  0  0  0  0  0  0  0  0  0  0
   -4.5941   -3.1017   -0.0614 C   0  0  1  0  0  0  0  0  0  0  0  0
   -5.7351   -3.4406    0.8837 C   0  0  0  0  0  0  0  0  0  0  0  0
   -7.0465   -3.7632    0.4130 C   0  0  0  0  0  0  0  0  0  0  0  0
   -7.2161   -4.9402   -0.5230 C   0  0  0  0  0  0  0  0  0  0  0  0
   -8.7465   -5.0367   -0.5699 C   0  0  0  0  0  0  0  0  0  0  0  0
   -9.2790   -3.6914   -0.0863 C   0  0  0  0  0  0  0  0  0  0  0  0
   -8.0045   -2.7898   -0.1423 C   0  0  0  0  0  0  0  0  0  0  0  0
   -4.9106   -1.8602   -0.7670 C   0  0  0  0  0  0  0  0  0  0  0  0
   -5.5334   -1.9182   -1.8443 O   0  0  0  0  0  0  0  0  0  0  0  0
   -4.5904   -0.5367   -0.3554 N   0  0  0  0  0  0  0  0  0  0  0  0
   -4.9781    0.6391   -1.2007 C   0  0  2  0  0  0  0  0  0  0  0  0
   -4.1305    1.7797   -0.8871 C   0  0  0  0  0  0  0  0  0  0  0  0
   -3.4150    1.7335    0.1384 O   0  0  0  0  0  0  0  0  0  0  0  0
   -3.9917    2.9903   -1.6274 N   0  0  0  0  0  0  0  0  0  0  0  0
   -3.1437    4.0938   -1.1798 C   0  0  2  0  0  0  0  0  0  0  0  0
   -1.7146    3.7704   -1.4137 C   0  0  0  0  0  0  0  0  0  0  0  0
   -1.4559    2.7185   -2.0175 O   0  0  0  0  0  0  0  0  0  0  0  0
   -0.6150    4.5590   -1.0037 N   0  0  0  0  0  0  0  0  0  0  0  0
    0.7239    3.9366   -1.2931 C   0  0  2  0  0  0  0  0  0  0  0  0
    0.9768    3.0965   -0.0526 C   0  0  0  0  0  0  0  0  0  0  0  0
    0.4302    3.4793    0.9791 O   0  0  0  0  0  0  0  0  0  0  0  0
    1.7657    1.9347   -0.0122 N   0  0  0  0  0  0  0  0  0  0  0  0
    1.6425    5.0765   -1.4658 C   0  0  0  0  0  0  0  0  0  0  0  0
    3.0370    4.7882   -1.7777 C   0  0  0  0  0  0  0  0  0  0  0  0
    3.5684    3.6825   -1.9563 O   0  0  0  0  0  0  0  0  0  0  0  0
    3.9203    5.9303   -1.8966 N   0  0  0  0  0  0  0  0  0  0  0  0
   -3.3663    4.5009    0.2561 C   0  0  0  0  0  0  0  0  0  0  0  0
   -4.7398    4.9278    0.4625 C   0  0  0  0  0  0  0  0  0  0  0  0
   -5.6464    4.2156    0.9593 O   0  0  0  0  0  0  0  0  0  0  0  0
   -5.1428    6.2625    0.0831 N   0  0  0  0  0  0  0  0  0  0  0  0
   -6.4227    0.9758   -0.7230 C   0  0  2  0  0  0  0  0  0  0  0  0
   -6.9702    2.1309   -1.4641 C   0  0  0  0  0  0  0  0  0  0  0  0
   -8.4130    2.4332   -0.9877 C   0  0  0  0  0  0  0  0  0  0  0  0
   -6.4187    1.0772    0.7652 C   0  0  0  0  0  0  0  0  0  0  0  0
    8.6986    2.3617    0.6031 H   0  0  0  0  0  0  0  0  0  0  0  0
   10.2301    1.7977    0.0142 H   0  0  0  0  0  0  0  0  0  0  0  0
   10.0557    2.1683    2.8401 H   0  0  0  0  0  0  0  0  0  0  0  0
   10.8505    0.8424    1.9294 H   0  0  0  0  0  0  0  0  0  0  0  0
    7.8482    1.2335    2.4555 H   0  0  0  0  0  0  0  0  0  0  0  0
    8.9324   -0.0098    3.2891 H   0  0  0  0  0  0  0  0  0  0  0  0
    8.2147    0.2991    0.3093 H   0  0  0  0  0  0  0  0  0  0  0  0
    8.5492   -3.1935    1.1519 H   0  0  0  0  0  0  0  0  0  0  0  0
   11.4214   -3.2422    1.2623 H   0  0  0  0  0  0  0  0  0  0  0  0
   10.3774   -4.5820    0.6733 H   0  0  0  0  0  0  0  0  0  0  0  0
    9.3190   -2.3757   -1.7815 H   0  0  0  0  0  0  0  0  0  0  0  0
   10.8704   -1.6015   -2.2784 H   0  0  0  0  0  0  0  0  0  0  0  0
    7.1655   -2.0056    1.9912 H   0  0  0  0  0  0  0  0  0  0  0  0
    4.4819   -1.7009    1.9108 H   0  0  0  0  0  0  0  0  0  0  0  0
    3.5689   -2.8089   -0.0482 H   0  0  0  0  0  0  0  0  0  0  0  0
    5.4061   -3.0996   -0.1275 H   0  0  0  0  0  0  0  0  0  0  0  0
    5.6791   -1.1765   -1.5608 H   0  0  0  0  0  0  0  0  0  0  0  0
    4.1831   -2.0508   -2.2248 H   0  0  0  0  0  0  0  0  0  0  0  0
    2.7779   -0.3804   -1.5442 H   0  0  0  0  0  0  0  0  0  0  0  0
    4.2613    0.6039   -1.3971 H   0  0  0  0  0  0  0  0  0  0  0  0
    1.7596    1.9584    2.0886 H   0  0  0  0  0  0  0  0  0  0  0  0
    0.0259    0.2779    0.3520 H   0  0  0  0  0  0  0  0  0  0  0  0
   -0.3456    1.4883    1.5548 H   0  0  0  0  0  0  0  0  0  0  0  0
   -0.4719   -2.5694    0.2545 H   0  0  0  0  0  0  0  0  0  0  0  0
    0.3309   -4.1670    0.5841 H   0  0  0  0  0  0  0  0  0  0  0  0
   -1.5017   -2.7696    2.6322 H   0  0  0  0  0  0  0  0  0  0  0  0
   -1.6273   -5.3723    3.0503 H   0  0  0  0  0  0  0  0  0  0  0  0
   -0.2884   -4.3845    3.5675 H   0  0  0  0  0  0  0  0  0  0  0  0
   -3.1709   -1.9669    1.2120 H   0  0  0  0  0  0  0  0  0  0  0  0
   -4.3011   -3.9687   -0.6510 H   0  0  0  0  0  0  0  0  0  0  0  0
   -5.3360   -4.3163    1.4830 H   0  0  0  0  0  0  0  0  0  0  0  0
   -5.7625   -2.6197    1.6655 H   0  0  0  0  0  0  0  0  0  0  0  0
   -7.6152   -4.1621    1.3682 H   0  0  0  0  0  0  0  0  0  0  0  0
   -6.8044   -4.7416   -1.5229 H   0  0  0  0  0  0  0  0  0  0  0  0
   -6.7690   -5.8265   -0.0284 H   0  0  0  0  0  0  0  0  0  0  0  0
   -9.0146   -5.2421   -1.6121 H   0  0  0  0  0  0  0  0  0  0  0  0
   -9.0168   -5.8555    0.1387 H   0  0  0  0  0  0  0  0  0  0  0  0
   -9.5448   -3.7792    0.9743 H   0  0  0  0  0  0  0  0  0  0  0  0
  -10.0610   -3.3057   -0.7420 H   0  0  0  0  0  0  0  0  0  0  0  0
   -8.1786   -1.8897    0.4835 H   0  0  0  0  0  0  0  0  0  0  0  0
   -7.9555   -2.5628   -1.2137 H   0  0  0  0  0  0  0  0  0  0  0  0
   -4.1033   -0.4245    0.5155 H   0  0  0  0  0  0  0  0  0  0  0  0
   -5.0809    0.3701   -2.2446 H   0  0  0  0  0  0  0  0  0  0  0  0
   -4.5031    3.0259   -2.5084 H   0  0  0  0  0  0  0  0  0  0  0  0
   -3.4417    4.9729   -1.7780 H   0  0  0  0  0  0  0  0  0  0  0  0
   -0.7644    5.4343   -0.5711 H   0  0  0  0  0  0  0  0  0  0  0  0
    0.6442    3.2972   -2.1595 H   0  0  0  0  0  0  0  0  0  0  0  0
    2.2611    1.6727   -0.8313 H   0  0  0  0  0  0  0  0  0  0  0  0
    1.1738    5.7891   -2.1893 H   0  0  0  0  0  0  0  0  0  0  0  0
    1.6393    5.6395   -0.4752 H   0  0  0  0  0  0  0  0  0  0  0  0
    4.3837    6.2294   -1.0102 H   0  0  0  0  0  0  0  0  0  0  0  0
    4.0693    6.4068   -2.8148 H   0  0  0  0  0  0  0  0  0  0  0  0
   -2.7288    5.4345    0.3734 H   0  0  0  0  0  0  0  0  0  0  0  0
   -2.9680    3.8149    1.0061 H   0  0  0  0  0  0  0  0  0  0  0  0
   -5.2691    6.5154   -0.9287 H   0  0  0  0  0  0  0  0  0  0  0  0
   -5.3040    6.9641    0.8400 H   0  0  0  0  0  0  0  0  0  0  0  0
   -6.9717    0.0143   -0.9934 H   0  0  0  0  0  0  0  0  0  0  0  0
   -6.4168    3.0589   -1.3364 H   0  0  0  0  0  0  0  0  0  0  0  0
   -7.0845    1.8382   -2.5251 H   0  0  0  0  0  0  0  0  0  0  0  0
   -8.3381    2.9903   -0.0492 H   0  0  0  0  0  0  0  0  0  0  0  0
   -8.9918    1.5126   -0.9392 H   0  0  0  0  0  0  0  0  0  0  0  0
   -8.8413    3.1143   -1.7602 H   0  0  0  0  0  0  0  0  0  0  0  0
   -6.7333    0.0965    1.1980 H   0  0  0  0  0  0  0  0  0  0  0  0
   -5.4531    1.3968    1.2102 H   0  0  0  0  0  0  0  0  0  0  0  0
   -7.1776    1.7988    1.1101 H   0  0  0  0  0  0  0  0  0  0  0  0
  1  2  1  0
  2  3  1  0
  3  4  1  0
  4  5  1  0
  5  6  2  0
  5  7  1  0
  7  8  1  0
  8  9  1  0
  9 10  2  0
  9 11  1  0
  4 12  1  0
 12 13  1  0
 13 14  2  0
 13 15  1  0
 15 16  1  0
 16 17  1  0
 17 18  1  0
 18 19  1  0
 19 20  1  0
 20 21  2  0
 20 22  1  0
 22 23  1  0
 23 24  1  0
 24 25  1  0
 25 26  1  0
 26 27  1  0
 27 28  1  0
 27 29  1  0
 29 30  2  0
 29 31  1  0
 31 32  1  0
 32 33  1  0
 33 34  1  0
 34 35  1  0
 35 36  1  0
 36 37  1  0
 37 38  1  0
 32 39  1  0
 39 40  2  0
 39 41  1  0
 41 42  1  0
 42 43  1  0
 43 44  2  0
 43 45  1  0
 45 46  1  0
 46 47  1  0
 47 48  2  0
 47 49  1  0
 49 50  1  0
 50 51  1  0
 51 52  2  0
 51 53  1  0
 50 54  1  0
 54 55  1  0
 55 56  2  0
 55 57  1  0
 46 58  1  0
 58 59  1  0
 59 60  2  0
 59 61  1  0
 42 62  1  0
 62 63  1  0
 63 64  1  0
 62 65  1  0
 19 15  1  0
 53 22  1  0
 38 34  1  0
  1 66  1  0
  1 67  1  0
  2 68  1  0
  2 69  1  0
  3 70  1  0
  3 71  1  0
  4 72  1  6
  7 73  1  0
  8 74  1  0
  8 75  1  0
 11 76  1  0
 11 77  1  0
 12 78  1  0
 15 79  1  1
 16 80  1  0
 16 81  1  0
 17 82  1  0
 17 83  1  0
 18 84  1  0
 18 85  1  0
 22 86  1  1
 23 87  1  0
 23 88  1  0
 26 89  1  0
 26 90  1  0
 27 91  1  1
 28 92  1  0
 28 93  1  0
 31 94  1  0
 32 95  1  6
 33 96  1  0
 33 97  1  0
 34 98  1  0
 35 99  1  0
 35100  1  0
 36101  1  0
 36102  1  0
 37103  1  0
 37104  1  0
 38105  1  0
 38106  1  0
 41107  1  0
 42108  1  6
 45109  1  0
 46110  1  6
 49111  1  0
 50112  1  6
 53113  1  0
 54114  1  0
 54115  1  0
 57116  1  0
 57117  1  0
 58118  1  0
 58119  1  0
 61120  1  0
 61121  1  0
 62122  1  1
 63123  1  0
 63124  1  0
 64125  1  0
 64126  1  0
 64127  1  0
 65128  1  0
 65129  1  0
 65130  1  0
M  END
>  <Ligand ID>  (1) 
LIG0001622

>  <Ligand>  (1) 
CHEMBL1817769

>  <SMILES>  (1) 
NCC[C@@H](C(=O)NCC(=O)N)NC(=O)[C@@H]1CCCN1C(=O)[C@@H]1CSSC[C@H](N)C(=O)N[C@@H](CC2CCCC2)C(=O)N[C@H](C(=O)N[C@H](C(=O)N[C@H](C(=O)N1)CC(=O)N)CC(=O)N)[C@H](CC)C

>  <CID>  (1) 
53362915.0

>  <ChEMBL ID>  (1) 
nan

>  <InChiKey>  (1) 
CKMDIWZLFAHZIL-DSMBUKBGSA-N

>  <InChi>  (1) 
InChI=1S/C39H65N13O11S2/c1-3-19(2)31-38(62)49-25(15-29(43)54)34(58)48-24(14-28(42)53)35(59)50-26(18-65-64-17-21(41)32(56)47-23(36(60)51-31)13-20-7-4-5-8-20)39(63)52-12-6-9-27(52)37(61)46-22(10-11-40)33(57)45-16-30(44)55/h19-27,31H,3-18,40-41H2,1-2H3,(H2,42,53)(H2,43,54)(H2,44,55)(H,45,57)(H,46,61)(H,47,56)(H,48,58)(H,49,62)(H,50,59)(H,51,60)/t19-,21-,22-,23-,24-,25-,26-,27-,31-/m0/s1

>  <IUPAC Name>  (1) 
(2S)-N-[(2S)-4-amino-1-[(2-amino-2-oxoethyl)amino]-1-oxobutan-2-yl]-1-[(4R,7S,10S,13S,16S,19R)-19-amino-7,10-bis(2-amino-2-oxoethyl)-13-[(2S)-butan-2-yl]-16-(cyclopentylmethyl)-6,9,12,15,18-pentaoxo-1,2-dithia-5,8,11,14,17-pentazacycloicosane-4-carbonyl]pyrrolidine-2-carboxamide

$$$$
