
     RDKit          3D

 59 63  0  0  0  0  0  0  0  0999 V2000
   -9.3060   -2.3827    1.3284 Cl  0  0  0  0  0  0  0  0  0  0  0  0
   -7.7536   -1.8029    0.7600 C   0  0  0  0  0  0  0  0  0  0  0  0
   -6.7098   -1.6732    1.6536 C   0  0  0  0  0  0  0  0  0  0  0  0
   -5.4886   -1.2195    1.2181 C   0  0  0  0  0  0  0  0  0  0  0  0
   -5.2219   -0.8737   -0.0873 C   0  0  0  0  0  0  0  0  0  0  0  0
   -6.2949   -1.0130   -0.9765 C   0  0  0  0  0  0  0  0  0  0  0  0
   -7.5285   -1.4666   -0.5591 C   0  0  0  0  0  0  0  0  0  0  0  0
   -5.8117   -0.6288   -2.1527 N   0  0  0  0  0  0  0  0  0  0  0  0
   -4.5261   -0.2653   -2.0520 C   0  0  0  0  0  0  0  0  0  0  0  0
   -3.7895    0.1494   -3.0069 O   0  0  0  0  0  0  0  0  0  0  0  0
   -4.1436   -0.4177   -0.7442 N   0  0  0  0  0  0  0  0  0  0  0  0
   -2.8603   -0.1321   -0.2727 C   0  0  0  0  0  0  0  0  0  0  0  0
   -2.3710   -0.5428    1.0211 C   0  0  0  0  0  0  0  0  0  0  0  0
   -0.8512   -0.2864    1.0414 C   0  0  0  0  0  0  0  0  0  0  0  0
   -0.3799    0.4793   -0.0601 N   0  0  0  0  0  0  0  0  0  0  0  0
   -1.1762    1.6183   -0.4343 C   0  0  0  0  0  0  0  0  0  0  0  0
   -2.6482    1.3926   -0.3310 C   0  0  0  0  0  0  0  0  0  0  0  0
    0.9345    0.9802    0.2925 C   0  0  0  0  0  0  0  0  0  0  0  0
    1.5555    1.8145   -0.8021 C   0  0  0  0  0  0  0  0  0  0  0  0
    2.7813    2.5021   -0.1994 C   0  0  0  0  0  0  0  0  0  0  0  0
    3.7273    1.5004    0.1570 N   0  0  0  0  0  0  0  0  0  0  0  0
    3.2033    0.5351    1.0599 C   0  0  0  0  0  0  0  0  0  0  0  0
    1.9108   -0.1178    0.6147 C   0  0  0  0  0  0  0  0  0  0  0  0
    4.4626    1.0090   -0.9562 C   0  0  0  0  0  0  0  0  0  0  0  0
    5.4351   -0.0152   -0.5017 C   0  0  0  0  0  0  0  0  0  0  0  0
    6.7241    0.3574   -0.1062 C   0  0  0  0  0  0  0  0  0  0  0  0
    7.6369   -0.5844    0.3152 C   0  0  0  0  0  0  0  0  0  0  0  0
    7.3269   -1.9329    0.3678 C   0  0  0  0  0  0  0  0  0  0  0  0
    6.0651   -2.3102   -0.0179 C   0  0  0  0  0  0  0  0  0  0  0  0
    5.1555   -1.3613   -0.4391 C   0  0  0  0  0  0  0  0  0  0  0  0
   -6.8588   -1.9332    2.7103 H   0  0  0  0  0  0  0  0  0  0  0  0
   -4.7007   -1.1328    1.9470 H   0  0  0  0  0  0  0  0  0  0  0  0
   -8.3285   -1.5584   -1.2804 H   0  0  0  0  0  0  0  0  0  0  0  0
   -6.3415   -0.6074   -3.0346 H   0  0  0  0  0  0  0  0  0  0  0  0
   -2.1343   -0.5064   -1.0623 H   0  0  0  0  0  0  0  0  0  0  0  0
   -2.4823   -1.6027    1.2338 H   0  0  0  0  0  0  0  0  0  0  0  0
   -2.7359    0.1572    1.8077 H   0  0  0  0  0  0  0  0  0  0  0  0
   -0.5052    0.1865    1.9580 H   0  0  0  0  0  0  0  0  0  0  0  0
   -0.2845   -1.2634    0.9875 H   0  0  0  0  0  0  0  0  0  0  0  0
   -0.8825    2.5423    0.1013 H   0  0  0  0  0  0  0  0  0  0  0  0
   -0.9877    1.8529   -1.5250 H   0  0  0  0  0  0  0  0  0  0  0  0
   -2.9934    1.7762    0.6580 H   0  0  0  0  0  0  0  0  0  0  0  0
   -3.2534    1.8464   -1.1313 H   0  0  0  0  0  0  0  0  0  0  0  0
    0.8561    1.6275    1.1939 H   0  0  0  0  0  0  0  0  0  0  0  0
    0.8614    2.5832   -1.2221 H   0  0  0  0  0  0  0  0  0  0  0  0
    1.9237    1.1804   -1.6371 H   0  0  0  0  0  0  0  0  0  0  0  0
    3.2389    3.1393   -1.0016 H   0  0  0  0  0  0  0  0  0  0  0  0
    2.4694    3.1392    0.6402 H   0  0  0  0  0  0  0  0  0  0  0  0
    2.9425    1.0969    2.0020 H   0  0  0  0  0  0  0  0  0  0  0  0
    3.9385   -0.2171    1.3650 H   0  0  0  0  0  0  0  0  0  0  0  0
    2.0343   -0.7830   -0.2387 H   0  0  0  0  0  0  0  0  0  0  0  0
    1.6123   -0.7407    1.4986 H   0  0  0  0  0  0  0  0  0  0  0  0
    3.8638    0.5859   -1.7858 H   0  0  0  0  0  0  0  0  0  0  0  0
    5.0706    1.8559   -1.3467 H   0  0  0  0  0  0  0  0  0  0  0  0
    6.9743    1.4229   -0.1460 H   0  0  0  0  0  0  0  0  0  0  0  0
    8.6301   -0.2182    0.6107 H   0  0  0  0  0  0  0  0  0  0  0  0
    8.0439   -2.6681    0.6982 H   0  0  0  0  0  0  0  0  0  0  0  0
    5.7867   -3.3562    0.0100 H   0  0  0  0  0  0  0  0  0  0  0  0
    4.1842   -1.7165   -0.7291 H   0  0  0  0  0  0  0  0  0  0  0  0
  1  2  1  0
  2  3  2  0
  3  4  1  0
  4  5  2  0
  5  6  1  0
  6  7  2  0
  6  8  1  0
  8  9  1  0
  9 10  2  0
  9 11  1  0
 11 12  1  0
 12 13  1  0
 13 14  1  0
 14 15  1  0
 15 16  1  0
 16 17  1  0
 15 18  1  0
 18 19  1  0
 19 20  1  0
 20 21  1  0
 21 22  1  0
 22 23  1  0
 21 24  1  0
 24 25  1  0
 25 26  2  0
 26 27  1  0
 27 28  2  0
 28 29  1  0
 29 30  2  0
  7  2  1  0
 17 12  1  0
 23 18  1  0
 30 25  1  0
 11  5  1  0
  3 31  1  0
  4 32  1  0
  7 33  1  0
  8 34  1  0
 12 35  1  0
 13 36  1  0
 13 37  1  0
 14 38  1  0
 14 39  1  0
 16 40  1  0
 16 41  1  0
 17 42  1  0
 17 43  1  0
 18 44  1  0
 19 45  1  0
 19 46  1  0
 20 47  1  0
 20 48  1  0
 22 49  1  0
 22 50  1  0
 23 51  1  0
 23 52  1  0
 24 53  1  0
 24 54  1  0
 26 55  1  0
 27 56  1  0
 28 57  1  0
 29 58  1  0
 30 59  1  0
M  END
>  <Ligand ID>  (1) 
LIG0000864

>  <Ligand>  (1) 
CHEMBL490597

>  <SMILES>  (1) 
Clc1ccc2c(c1)[nH]c(=O)n2C1CCN(CC1)C1CCN(CC1)Cc1ccccc1

>  <CID>  (1) 
44579417.0

>  <ChEMBL ID>  (1) 
nan

>  <InChiKey>  (1) 
UTARSHGDECSMJT-UHFFFAOYSA-N

>  <InChi>  (1) 
InChI=1S/C24H29ClN4O/c25-19-6-7-23-22(16-19)26-24(30)29(23)21-10-14-28(15-11-21)20-8-12-27(13-9-20)17-18-4-2-1-3-5-18/h1-7,16,20-21H,8-15,17H2,(H,26,30)

>  <IUPAC Name>  (1) 
3-[1-(1-benzylpiperidin-4-yl)piperidin-4-yl]-6-chloro-1H-benzimidazol-2-one

$$$$
