
     RDKit          3D

  7  6  0  0  0  0  0  0  0  0999 V2000
   -0.6439   -0.0495    0.0204 C   0  0  0  0  0  0  0  0  0  0  0  0
    0.8420    0.0474   -0.0472 C   0  0  0  0  0  0  0  0  0  0  0  0
    1.5803   -0.9101    0.0958 O   0  0  0  0  0  0  0  0  0  0  0  0
   -0.9896    0.1930    1.0676 H   0  0  0  0  0  0  0  0  0  0  0  0
   -1.0906    0.7609   -0.6152 H   0  0  0  0  0  0  0  0  0  0  0  0
   -0.9968   -1.0453   -0.2910 H   0  0  0  0  0  0  0  0  0  0  0  0
    1.2987    1.0036   -0.2305 H   0  0  0  0  0  0  0  0  0  0  0  0
  1  2  1  0
  2  3  2  0
  1  4  1  0
  1  5  1  0
  1  6  1  0
  2  7  1  0
M  END
>  <Ligand ID>  (1) 
LIG0001029

>  <Ligand>  (1) 
Ethanal

>  <SMILES>  (1) 
CC=O

>  <CID>  (1) 
177.0

>  <ChEMBL ID>  (1) 
nan

>  <InChiKey>  (1) 
IKHGUXGNUITLKF-UHFFFAOYSA-N

>  <InChi>  (1) 
InChI=1S/C2H4O/c1-2-3/h2H,1H3

>  <IUPAC Name>  (1) 
acetaldehyde

$$$$
