
     RDKit          3D

 84 87  0  0  0  0  0  0  0  0999 V2000
   11.5400   -1.1645   -0.2742 C   0  0  0  0  0  0  0  0  0  0  0  0
   10.8150   -1.2671   -1.4363 O   0  0  0  0  0  0  0  0  0  0  0  0
    9.7103   -2.0903   -1.3687 C   0  0  0  0  0  0  0  0  0  0  0  0
    8.7280   -1.6166   -0.3324 C   0  0  0  0  0  0  0  0  0  0  0  0
    7.5990   -2.4353   -0.2503 O   0  0  0  0  0  0  0  0  0  0  0  0
    6.8993   -2.5083   -1.4268 C   0  0  0  0  0  0  0  0  0  0  0  0
    6.4019   -1.1470   -1.8838 C   0  0  0  0  0  0  0  0  0  0  0  0
    5.5730   -0.6219   -0.9159 O   0  0  0  0  0  0  0  0  0  0  0  0
    5.1095    0.6226   -1.3288 C   0  0  0  0  0  0  0  0  0  0  0  0
    4.1942    1.2144   -0.2724 C   0  0  0  0  0  0  0  0  0  0  0  0
    3.0948    0.3633   -0.0531 O   0  0  0  0  0  0  0  0  0  0  0  0
    2.3212    0.9936    0.9151 C   0  0  0  0  0  0  0  0  0  0  0  0
    1.0890    0.2088    1.2644 C   0  0  0  0  0  0  0  0  0  0  0  0
    0.2617    0.0095    0.1514 O   0  0  0  0  0  0  0  0  0  0  0  0
   -0.1423    1.1883   -0.4156 C   0  0  0  0  0  0  0  0  0  0  0  0
   -0.9599    2.1052    0.4296 C   0  0  0  0  0  0  0  0  0  0  0  0
   -2.1326    1.6214    0.8546 O   0  0  0  0  0  0  0  0  0  0  0  0
   -3.1054    1.2292    0.0154 C   0  0  1  0  0  0  0  0  0  0  0  0
   -3.5173   -0.1865    0.2605 C   0  0  1  0  0  0  0  0  0  0  0  0
   -3.4465   -0.6765    1.5655 N   0  0  0  0  0  0  0  0  0  0  0  0
   -4.3470   -0.1470    2.5498 C   0  0  0  0  0  0  0  0  0  0  0  0
   -5.6178    0.4375    2.0968 C   0  0  0  0  0  0  0  0  0  0  0  0
   -5.8455    0.4654    0.6200 C   0  0  2  0  0  0  0  0  0  0  0  0
   -4.9591   -0.4476   -0.1795 C   0  0  1  0  0  0  0  0  0  0  0  0
   -5.0562   -0.2538   -1.6443 C   0  0  0  0  0  0  0  0  0  0  0  0
   -5.5569    1.8415    0.1592 C   0  0  0  0  0  0  0  0  0  0  0  0
   -4.2583    2.1834   -0.1086 C   0  0  0  0  0  0  0  0  0  0  0  0
   -4.0416    3.4920   -0.5303 C   0  0  0  0  0  0  0  0  0  0  0  0
   -5.0935    4.3975   -0.6711 C   0  0  0  0  0  0  0  0  0  0  0  0
   -6.3976    4.0203   -0.3924 C   0  0  0  0  0  0  0  0  0  0  0  0
   -6.6029    2.7245    0.0247 C   0  0  0  0  0  0  0  0  0  0  0  0
   -7.4744    4.8783   -0.5131 O   0  0  0  0  0  0  0  0  0  0  0  0
   -7.2923    0.0572    0.2950 C   0  0  0  0  0  0  0  0  0  0  0  0
   -2.3672   -1.3826    2.0725 C   0  0  0  0  0  0  0  0  0  0  0  0
   -2.0985   -2.7635    1.6109 C   0  0  0  0  0  0  0  0  0  0  0  0
   -3.1547   -3.8331    1.8381 C   0  0  0  0  0  0  0  0  0  0  0  0
   -2.7284   -3.4437    0.4348 C   0  0  0  0  0  0  0  0  0  0  0  0
   12.4125   -0.4805   -0.5068 H   0  0  0  0  0  0  0  0  0  0  0  0
   10.9602   -0.7152    0.5860 H   0  0  0  0  0  0  0  0  0  0  0  0
   11.9702   -2.1272    0.0724 H   0  0  0  0  0  0  0  0  0  0  0  0
    9.9854   -3.1445   -1.1573 H   0  0  0  0  0  0  0  0  0  0  0  0
    9.1962   -2.0157   -2.3526 H   0  0  0  0  0  0  0  0  0  0  0  0
    8.4915   -0.5460   -0.4432 H   0  0  0  0  0  0  0  0  0  0  0  0
    9.2262   -1.6949    0.6795 H   0  0  0  0  0  0  0  0  0  0  0  0
    5.9680   -3.1041   -1.2452 H   0  0  0  0  0  0  0  0  0  0  0  0
    7.4104   -2.9805   -2.2761 H   0  0  0  0  0  0  0  0  0  0  0  0
    7.2416   -0.4454   -2.0461 H   0  0  0  0  0  0  0  0  0  0  0  0
    5.8919   -1.3034   -2.8594 H   0  0  0  0  0  0  0  0  0  0  0  0
    6.0100    1.2869   -1.3887 H   0  0  0  0  0  0  0  0  0  0  0  0
    4.6395    0.6299   -2.3214 H   0  0  0  0  0  0  0  0  0  0  0  0
    4.7764    1.3928    0.6508 H   0  0  0  0  0  0  0  0  0  0  0  0
    3.8631    2.1990   -0.6555 H   0  0  0  0  0  0  0  0  0  0  0  0
    2.1295    2.0168    0.5709 H   0  0  0  0  0  0  0  0  0  0  0  0
    2.9620    0.9884    1.8442 H   0  0  0  0  0  0  0  0  0  0  0  0
    0.5237    0.6506    2.0984 H   0  0  0  0  0  0  0  0  0  0  0  0
    1.4091   -0.8073    1.5795 H   0  0  0  0  0  0  0  0  0  0  0  0
    0.7289    1.7398   -0.8901 H   0  0  0  0  0  0  0  0  0  0  0  0
   -0.7546    0.9051   -1.3157 H   0  0  0  0  0  0  0  0  0  0  0  0
   -0.3812    2.3827    1.3852 H   0  0  0  0  0  0  0  0  0  0  0  0
   -0.9785    3.0830   -0.1025 H   0  0  0  0  0  0  0  0  0  0  0  0
   -2.6560    1.2770   -1.0359 H   0  0  0  0  0  0  0  0  0  0  0  0
   -2.8951   -0.8860   -0.3966 H   0  0  0  0  0  0  0  0  0  0  0  0
   -4.4935   -0.9868    3.2962 H   0  0  0  0  0  0  0  0  0  0  0  0
   -3.7660    0.6120    3.1476 H   0  0  0  0  0  0  0  0  0  0  0  0
   -5.7635    1.4749    2.5409 H   0  0  0  0  0  0  0  0  0  0  0  0
   -6.4734   -0.1396    2.5556 H   0  0  0  0  0  0  0  0  0  0  0  0
   -5.1928   -1.4991    0.0746 H   0  0  0  0  0  0  0  0  0  0  0  0
   -5.8963    0.3604   -1.9813 H   0  0  0  0  0  0  0  0  0  0  0  0
   -5.1859   -1.2400   -2.1327 H   0  0  0  0  0  0  0  0  0  0  0  0
   -4.1500    0.1902   -2.1053 H   0  0  0  0  0  0  0  0  0  0  0  0
   -3.0698    3.8865   -0.7767 H   0  0  0  0  0  0  0  0  0  0  0  0
   -4.9200    5.3998   -0.9920 H   0  0  0  0  0  0  0  0  0  0  0  0
   -7.6285    2.4170    0.2475 H   0  0  0  0  0  0  0  0  0  0  0  0
   -8.2006    4.6047   -1.1650 H   0  0  0  0  0  0  0  0  0  0  0  0
   -7.3316   -1.0423    0.5666 H   0  0  0  0  0  0  0  0  0  0  0  0
   -7.5142    0.0886   -0.7753 H   0  0  0  0  0  0  0  0  0  0  0  0
   -8.0141    0.5450    0.9622 H   0  0  0  0  0  0  0  0  0  0  0  0
   -2.5899   -1.5085    3.2056 H   0  0  0  0  0  0  0  0  0  0  0  0
   -1.4019   -0.8087    2.1329 H   0  0  0  0  0  0  0  0  0  0  0  0
   -1.0638   -3.1609    1.8995 H   0  0  0  0  0  0  0  0  0  0  0  0
   -2.8497   -4.7859    2.2747 H   0  0  0  0  0  0  0  0  0  0  0  0
   -4.1695   -3.5069    2.1448 H   0  0  0  0  0  0  0  0  0  0  0  0
   -3.5238   -3.0278   -0.1937 H   0  0  0  0  0  0  0  0  0  0  0  0
   -2.0734   -4.2428   -0.0398 H   0  0  0  0  0  0  0  0  0  0  0  0
  1  2  1  0
  2  3  1  0
  3  4  1  0
  4  5  1  0
  5  6  1  0
  6  7  1  0
  7  8  1  0
  8  9  1  0
  9 10  1  0
 10 11  1  0
 11 12  1  0
 12 13  1  0
 13 14  1  0
 14 15  1  0
 15 16  1  0
 16 17  1  0
 17 18  1  0
 18 19  1  0
 19 20  1  0
 20 21  1  0
 21 22  1  0
 22 23  1  0
 23 24  1  0
 24 25  1  0
 23 26  1  0
 26 27  2  0
 27 28  1  0
 28 29  2  0
 29 30  1  0
 30 31  2  0
 30 32  1  0
 23 33  1  1
 20 34  1  0
 34 35  1  0
 35 36  1  0
 36 37  1  0
 27 18  1  0
 37 35  1  0
 24 19  1  0
 31 26  1  0
  1 38  1  0
  1 39  1  0
  1 40  1  0
  3 41  1  0
  3 42  1  0
  4 43  1  0
  4 44  1  0
  6 45  1  0
  6 46  1  0
  7 47  1  0
  7 48  1  0
  9 49  1  0
  9 50  1  0
 10 51  1  0
 10 52  1  0
 12 53  1  0
 12 54  1  0
 13 55  1  0
 13 56  1  0
 15 57  1  0
 15 58  1  0
 16 59  1  0
 16 60  1  0
 18 61  1  6
 19 62  1  6
 21 63  1  0
 21 64  1  0
 22 65  1  0
 22 66  1  0
 24 67  1  6
 25 68  1  0
 25 69  1  0
 25 70  1  0
 28 71  1  0
 29 72  1  0
 31 73  1  0
 32 74  1  0
 33 75  1  0
 33 76  1  0
 33 77  1  0
 34 78  1  0
 34 79  1  0
 35 80  1  0
 36 81  1  0
 36 82  1  0
 37 83  1  0
 37 84  1  0
M  END
>  <Ligand ID>  (1) 
LIG0005480

>  <Ligand>  (1) 
SCHEMBL18394566

>  <SMILES>  (1) 
COCCOCCOCCOCCOCCO[C@H]1[C@H]2N(CC[C@]([C@H]2C)(c2c1ccc(c2)O)C)CC1CC1

>  <CID>  (1) 
126482490.0

>  <ChEMBL ID>  (1) 
nan

>  <InChiKey>  (1) 
COCOGGUKZAWHKM-KITINDFRSA-N

>  <InChi>  (1) 
InChI=1S/C29H47NO7/c1-22-27-28(37-19-18-36-17-16-35-15-14-34-13-12-33-11-10-32-3)25-7-6-24(31)20-26(25)29(22,2)8-9-30(27)21-23-4-5-23/h6-7,20,22-23,27-28,31H,4-5,8-19,21H2,1-3H3/t22-,27-,28+,29+/m0/s1

>  <IUPAC Name>  (1) 
(1R,8R,9S,13R)-10-(cyclopropylmethyl)-8-[2-[2-[2-[2-(2-methoxyethoxy)ethoxy]ethoxy]ethoxy]ethoxy]-1,13-dimethyl-10-azatricyclo[7.3.1.02,7]trideca-2(7),3,5-trien-4-ol

$$$$
