
     RDKit          3D

 55 58  0  0  0  0  0  0  0  0999 V2000
    3.7920    0.3586   -1.0410 O   0  0  0  0  0  0  0  0  0  0  0  0
    3.3121   -0.3825   -0.0123 C   0  0  1  0  0  0  0  0  0  0  0  0
    4.1669   -0.3396    1.2169 C   0  0  0  0  0  0  0  0  0  0  0  0
    5.4450   -0.7796    1.1513 O   0  0  0  0  0  0  0  0  0  0  0  0
    6.6028   -0.5010    0.5634 C   0  0  0  0  0  0  0  0  0  0  0  0
    6.9126    0.5246   -0.3016 C   0  0  0  0  0  0  0  0  0  0  0  0
    8.1706    0.7024   -0.8530 C   0  0  0  0  0  0  0  0  0  0  0  0
    9.1871   -0.1618   -0.5490 C   0  0  0  0  0  0  0  0  0  0  0  0
    8.9238   -1.1984    0.3099 C   0  0  0  0  0  0  0  0  0  0  0  0
    7.6814   -1.3676    0.8492 C   0  0  0  0  0  0  0  0  0  0  0  0
    1.9600    0.1498    0.4119 C   0  0  0  0  0  0  0  0  0  0  0  0
    0.9805   -0.0243   -0.4627 C   0  0  0  0  0  0  0  0  0  0  0  0
   -0.4005    0.4570   -0.1611 C   0  0  1  0  0  0  0  0  0  0  0  0
   -0.7753    1.4512   -1.2263 C   0  0  2  0  0  0  0  0  0  0  0  0
   -0.7672    2.7787   -0.7598 O   0  0  0  0  0  0  0  0  0  0  0  0
   -2.1388    1.0788   -1.7252 C   0  0  0  0  0  0  0  0  0  0  0  0
   -2.3727   -0.3347   -1.2485 C   0  0  1  0  0  0  0  0  0  0  0  0
   -1.4250   -0.6401   -0.1527 C   0  0  2  0  0  0  0  0  0  0  0  0
   -1.9871   -0.7948    1.2110 C   0  0  0  0  0  0  0  0  0  0  0  0
   -3.4847   -1.0038    1.2554 C   0  0  0  0  0  0  0  0  0  0  0  0
   -4.0682    0.0053    0.2882 C   0  0  1  0  0  0  0  0  0  0  0  0
   -3.7068   -0.4724   -0.9921 O   0  0  0  0  0  0  0  0  0  0  0  0
   -5.4980    0.2077    0.4118 C   0  0  0  0  0  0  0  0  0  0  0  0
   -6.1340    1.8078    1.2267 S   0  0  0  0  0  0  0  0  0  0  0  0
   -7.9104    1.2801    0.9863 C   0  0  0  0  0  0  0  0  0  0  0  0
   -7.7710    0.0612    0.3705 C   0  0  0  0  0  0  0  0  0  0  0  0
   -6.5615   -0.3428    0.1498 N   0  0  0  0  0  0  0  0  0  0  0  0
   -8.9729   -0.7300   -0.0112 C   0  0  0  0  0  0  0  0  0  0  0  0
   -8.8786   -1.8444   -0.5736 O   0  0  0  0  0  0  0  0  0  0  0  0
  -10.2497   -0.2585    0.2440 O   0  0  0  0  0  0  0  0  0  0  0  0
    3.8179   -0.1082   -1.9204 H   0  0  0  0  0  0  0  0  0  0  0  0
    3.1790   -1.4385   -0.3524 H   0  0  0  0  0  0  0  0  0  0  0  0
    4.0794    0.6998    1.6872 H   0  0  0  0  0  0  0  0  0  0  0  0
    3.6237   -0.9612    2.0092 H   0  0  0  0  0  0  0  0  0  0  0  0
    6.1751    1.2409   -0.5629 H   0  0  0  0  0  0  0  0  0  0  0  0
    8.3519    1.5359   -1.5335 H   0  0  0  0  0  0  0  0  0  0  0  0
   10.1477    0.0233   -1.0069 H   0  0  0  0  0  0  0  0  0  0  0  0
    9.7255   -1.8804    0.5505 H   0  0  0  0  0  0  0  0  0  0  0  0
    7.5431   -2.2084    1.5207 H   0  0  0  0  0  0  0  0  0  0  0  0
    1.7999    0.6372    1.3575 H   0  0  0  0  0  0  0  0  0  0  0  0
    1.1118   -0.5132   -1.4268 H   0  0  0  0  0  0  0  0  0  0  0  0
   -0.4135    1.0344    0.8064 H   0  0  0  0  0  0  0  0  0  0  0  0
   -0.0835    1.4558   -2.0972 H   0  0  0  0  0  0  0  0  0  0  0  0
   -0.8731    2.8140    0.2230 H   0  0  0  0  0  0  0  0  0  0  0  0
   -2.8698    1.8040   -1.3000 H   0  0  0  0  0  0  0  0  0  0  0  0
   -2.2337    1.1506   -2.8322 H   0  0  0  0  0  0  0  0  0  0  0  0
   -2.1418   -0.9918   -2.1262 H   0  0  0  0  0  0  0  0  0  0  0  0
   -0.8531   -1.5886   -0.3754 H   0  0  0  0  0  0  0  0  0  0  0  0
   -1.4822   -1.5976    1.7938 H   0  0  0  0  0  0  0  0  0  0  0  0
   -1.8089    0.1324    1.8169 H   0  0  0  0  0  0  0  0  0  0  0  0
   -3.7162   -2.0474    0.8942 H   0  0  0  0  0  0  0  0  0  0  0  0
   -3.8403   -0.9066    2.2787 H   0  0  0  0  0  0  0  0  0  0  0  0
   -3.4751    0.9542    0.4521 H   0  0  0  0  0  0  0  0  0  0  0  0
   -8.7394    1.9015    1.3112 H   0  0  0  0  0  0  0  0  0  0  0  0
  -11.0567   -0.8289    0.0819 H   0  0  0  0  0  0  0  0  0  0  0  0
  1  2  1  0
  2  3  1  0
  3  4  1  0
  4  5  1  0
  5  6  2  0
  6  7  1  0
  7  8  2  0
  8  9  1  0
  9 10  2  0
  2 11  1  0
 11 12  2  0
 12 13  1  0
 13 14  1  0
 14 15  1  0
 14 16  1  0
 16 17  1  0
 17 18  1  0
 18 19  1  0
 19 20  1  0
 20 21  1  0
 21 22  1  0
 21 23  1  0
 23 24  1  0
 24 25  1  0
 25 26  2  0
 26 27  1  0
 26 28  1  0
 28 29  2  0
 28 30  1  0
 10  5  1  0
 18 13  1  0
 27 23  2  0
 22 17  1  0
  1 31  1  0
  2 32  1  6
  3 33  1  0
  3 34  1  0
  6 35  1  0
  7 36  1  0
  8 37  1  0
  9 38  1  0
 10 39  1  0
 11 40  1  0
 12 41  1  0
 13 42  1  1
 14 43  1  6
 15 44  1  0
 16 45  1  0
 16 46  1  0
 17 47  1  6
 18 48  1  6
 19 49  1  0
 19 50  1  0
 20 51  1  0
 20 52  1  0
 21 53  1  1
 25 54  1  0
 30 55  1  0
M  END
>  <Ligand ID>  (1) 
LIG0000663

>  <Ligand>  (1) 
CHEMBL3804978

>  <SMILES>  (1) 
O[C@@H](COc1ccccc1)/C=C/[C@H]1[C@H](O)C[C@H]2[C@@H]1CC[C@@H](O2)c1scc(n1)C(=O)O

>  <CID>  (1) 
127052613.0

>  <ChEMBL ID>  (1) 
nan

>  <InChiKey>  (1) 
NATVOQPMZYYFRA-BNLVXIRVSA-N

>  <InChi>  (1) 
InChI=1S/C22H25NO6S/c24-13(11-28-14-4-2-1-3-5-14)6-7-15-16-8-9-19(29-20(16)10-18(15)25)21-23-17(12-30-21)22(26)27/h1-7,12-13,15-16,18-20,24-25H,8-11H2,(H,26,27)/b7-6+/t13-,15-,16-,18-,19-,20+/m1/s1

>  <IUPAC Name>  (1) 
2-[(2R,4aR,5R,6R,7aS)-6-hydroxy-5-[(E,3R)-3-hydroxy-4-phenoxybut-1-enyl]-2,3,4,4a,5,6,7,7a-octahydrocyclopenta[b]pyran-2-yl]-1,3-thiazole-4-carboxylic acid

$$$$
