
     RDKit          3D

 48 49  0  0  0  0  0  0  0  0999 V2000
    0.3453    2.3966   -1.4132 O   0  0  0  0  0  0  0  0  0  0  0  0
    0.3884    2.0914   -0.1794 C   0  0  0  0  0  0  0  0  0  0  0  0
    1.6152    2.3212    0.6157 C   0  0  0  0  0  0  0  0  0  0  0  0
    2.2044    1.0524    1.1168 C   0  0  0  0  0  0  0  0  0  0  0  0
    2.1356    0.6767    2.4437 C   0  0  0  0  0  0  0  0  0  0  0  0
    2.7035   -0.5061    2.8319 C   0  0  0  0  0  0  0  0  0  0  0  0
    3.3370   -1.3113    1.9046 C   0  0  0  0  0  0  0  0  0  0  0  0
    3.4194   -0.9542    0.5612 C   0  0  0  0  0  0  0  0  0  0  0  0
    2.8434    0.2435    0.1719 C   0  0  0  0  0  0  0  0  0  0  0  0
    4.0845   -1.7969   -0.3948 N   0  0  0  0  0  0  0  0  0  0  0  0
    5.2608   -2.2096   -0.0590 C   0  0  0  0  0  0  0  0  0  0  0  0
    5.8430   -1.8348    1.1955 N   0  0  0  0  0  0  0  0  0  0  0  0
    6.0531   -3.0529   -0.8946 N   0  0  0  0  0  0  0  0  0  0  0  0
    2.6232    2.9218   -0.2664 N   0  0  0  0  0  0  0  0  0  0  0  0
   -0.7269    1.5201    0.4917 N   0  0  0  0  0  0  0  0  0  0  0  0
   -1.9953    1.2503   -0.2097 C   0  0  2  0  0  0  0  0  0  0  0  0
   -2.9987    2.1023    0.4882 C   0  0  0  0  0  0  0  0  0  0  0  0
   -2.5700    2.7835    1.4577 O   0  0  0  0  0  0  0  0  0  0  0  0
   -4.3543    2.1837    0.1325 N   0  0  0  0  0  0  0  0  0  0  0  0
   -2.2744   -0.2004   -0.0196 C   0  0  0  0  0  0  0  0  0  0  0  0
   -3.5020   -0.7100   -0.6337 C   0  0  0  0  0  0  0  0  0  0  0  0
   -4.6886   -0.7257    0.1047 C   0  0  0  0  0  0  0  0  0  0  0  0
   -5.8694   -1.1998   -0.4525 C   0  0  0  0  0  0  0  0  0  0  0  0
   -5.8987   -1.6681   -1.7521 C   0  0  0  0  0  0  0  0  0  0  0  0
   -4.7245   -1.6609   -2.5052 C   0  0  0  0  0  0  0  0  0  0  0  0
   -3.5451   -1.1804   -1.9296 C   0  0  0  0  0  0  0  0  0  0  0  0
    1.4956    3.0036    1.4642 H   0  0  0  0  0  0  0  0  0  0  0  0
    1.6339    1.3167    3.1737 H   0  0  0  0  0  0  0  0  0  0  0  0
    2.6282   -0.7670    3.8827 H   0  0  0  0  0  0  0  0  0  0  0  0
    3.7619   -2.2243    2.2632 H   0  0  0  0  0  0  0  0  0  0  0  0
    2.8801    0.5677   -0.8659 H   0  0  0  0  0  0  0  0  0  0  0  0
    6.1416   -2.6462    1.8033 H   0  0  0  0  0  0  0  0  0  0  0  0
    5.9615   -0.8385    1.4835 H   0  0  0  0  0  0  0  0  0  0  0  0
    6.5896   -3.8525   -0.4828 H   0  0  0  0  0  0  0  0  0  0  0  0
    6.0804   -2.8471   -1.9305 H   0  0  0  0  0  0  0  0  0  0  0  0
    2.3944    2.6267   -1.2472 H   0  0  0  0  0  0  0  0  0  0  0  0
    2.4233    3.9612   -0.2455 H   0  0  0  0  0  0  0  0  0  0  0  0
   -0.7246    1.2595    1.5010 H   0  0  0  0  0  0  0  0  0  0  0  0
   -1.9136    1.5403   -1.2763 H   0  0  0  0  0  0  0  0  0  0  0  0
   -4.6234    2.2793   -0.8922 H   0  0  0  0  0  0  0  0  0  0  0  0
   -5.0818    2.1495    0.8836 H   0  0  0  0  0  0  0  0  0  0  0  0
   -2.2021   -0.4456    1.0616 H   0  0  0  0  0  0  0  0  0  0  0  0
   -1.4147   -0.7643   -0.4838 H   0  0  0  0  0  0  0  0  0  0  0  0
   -4.7491   -0.3837    1.1201 H   0  0  0  0  0  0  0  0  0  0  0  0
   -6.7969   -1.2152    0.1172 H   0  0  0  0  0  0  0  0  0  0  0  0
   -6.8226   -2.0483   -2.2141 H   0  0  0  0  0  0  0  0  0  0  0  0
   -4.7182   -2.0259   -3.5383 H   0  0  0  0  0  0  0  0  0  0  0  0
   -2.6523   -1.1781   -2.5103 H   0  0  0  0  0  0  0  0  0  0  0  0
  1  2  2  0
  2  3  1  0
  3  4  1  0
  4  5  2  0
  5  6  1  0
  6  7  2  0
  7  8  1  0
  8  9  2  0
  8 10  1  0
 10 11  2  3
 11 12  1  0
 11 13  1  0
  3 14  1  0
  2 15  1  0
 15 16  1  0
 16 17  1  0
 17 18  2  0
 17 19  1  0
 16 20  1  0
 20 21  1  0
 21 22  2  0
 22 23  1  0
 23 24  2  0
 24 25  1  0
 25 26  2  0
  9  4  1  0
 26 21  1  0
  3 27  1  0
  5 28  1  0
  6 29  1  0
  7 30  1  0
  9 31  1  0
 12 32  1  0
 12 33  1  0
 13 34  1  0
 13 35  1  0
 14 36  1  0
 14 37  1  0
 15 38  1  0
 16 39  1  6
 19 40  1  0
 19 41  1  0
 20 42  1  0
 20 43  1  0
 22 44  1  0
 23 45  1  0
 24 46  1  0
 25 47  1  0
 26 48  1  0
M  END
>  <Ligand ID>  (1) 
LIG0002616

>  <Ligand>  (1) 
CHEMBL3343992

>  <SMILES>  (1) 
O=C(C(c1cccc(c1)N=C(N)N)N)N[C@H](C(=O)N)Cc1ccccc1

>  <CID>  (1) 
118717466.0

>  <ChEMBL ID>  (1) 
nan

>  <InChiKey>  (1) 
YKCDVZGMEHGJGV-MLCCFXAWSA-N

>  <InChi>  (1) 
InChI=1S/C18H22N6O2/c19-15(12-7-4-8-13(10-12)23-18(21)22)17(26)24-14(16(20)25)9-11-5-2-1-3-6-11/h1-8,10,14-15H,9,19H2,(H2,20,25)(H,24,26)(H4,21,22,23)/t14-,15?/m0/s1

>  <IUPAC Name>  (1) 
(2S)-2-[[2-amino-2-[3-(diaminomethylideneamino)phenyl]acetyl]amino]-3-phenylpropanamide

$$$$
