
     RDKit          3D

 24 25  0  0  0  0  0  0  0  0999 V2000
   -0.2037    0.1987    1.2135 S   0  0  0  0  0  0  0  0  0  0  0  0
   -1.5668    1.3089    0.7365 C   0  0  0  0  0  0  0  0  0  0  0  0
   -2.8122    0.4735    0.6405 C   0  0  0  0  0  0  0  0  0  0  0  0
   -3.3229   -0.2110   -0.4206 C   0  0  0  0  0  0  0  0  0  0  0  0
   -4.4937   -0.8226    0.0101 C   0  0  0  0  0  0  0  0  0  0  0  0
   -4.6194   -0.4546    1.3536 C   0  0  0  0  0  0  0  0  0  0  0  0
   -3.6143    0.3067    1.6879 O   0  0  0  0  0  0  0  0  0  0  0  0
    0.2214   -1.1790   -0.3535 S   0  0  0  0  0  0  0  0  0  0  0  0
    1.4792   -0.5079   -1.4784 C   0  0  0  0  0  0  0  0  0  0  0  0
    2.7908   -0.3832   -0.8128 C   0  0  0  0  0  0  0  0  0  0  0  0
    3.2852    0.6884   -0.0895 C   0  0  0  0  0  0  0  0  0  0  0  0
    4.5488    0.3187    0.3255 C   0  0  0  0  0  0  0  0  0  0  0  0
    4.7514   -0.9643   -0.1721 C   0  0  0  0  0  0  0  0  0  0  0  0
    3.7033   -1.3574   -0.8390 O   0  0  0  0  0  0  0  0  0  0  0  0
   -1.6448    2.0603    1.5388 H   0  0  0  0  0  0  0  0  0  0  0  0
   -1.3468    1.7673   -0.2393 H   0  0  0  0  0  0  0  0  0  0  0  0
   -2.8785   -0.2549   -1.4029 H   0  0  0  0  0  0  0  0  0  0  0  0
   -5.1627   -1.4456   -0.5611 H   0  0  0  0  0  0  0  0  0  0  0  0
   -5.4286   -0.7473    2.0411 H   0  0  0  0  0  0  0  0  0  0  0  0
    1.4944   -1.1120   -2.3985 H   0  0  0  0  0  0  0  0  0  0  0  0
    1.1406    0.5191   -1.7629 H   0  0  0  0  0  0  0  0  0  0  0  0
    2.7851    1.6392    0.1184 H   0  0  0  0  0  0  0  0  0  0  0  0
    5.2616    0.8979    0.9232 H   0  0  0  0  0  0  0  0  0  0  0  0
    5.6326   -1.6025   -0.0585 H   0  0  0  0  0  0  0  0  0  0  0  0
  1  2  1  0
  2  3  1  0
  3  4  2  0
  4  5  1  0
  5  6  2  0
  6  7  1  0
  1  8  1  0
  8  9  1  0
  9 10  1  0
 10 11  2  0
 11 12  1  0
 12 13  2  0
 13 14  1  0
  7  3  1  0
 14 10  1  0
  2 15  1  0
  2 16  1  0
  4 17  1  0
  5 18  1  0
  6 19  1  0
  9 20  1  0
  9 21  1  0
 11 22  1  0
 12 23  1  0
 13 24  1  0
M  END
>  <Ligand ID>  (1) 
LIG0000117

>  <Ligand>  (1) 
2,2'-(Dithiodimethylene)difuran

>  <SMILES>  (1) 
S(Cc1ccco1)SCc1ccco1

>  <CID>  (1) 
20499.0

>  <ChEMBL ID>  (1) 
nan

>  <InChiKey>  (1) 
CBJPZHSWLMJQRI-UHFFFAOYSA-N

>  <InChi>  (1) 
InChI=1S/C10H10O2S2/c1-3-9(11-5-1)7-13-14-8-10-4-2-6-12-10/h1-6H,7-8H2

>  <IUPAC Name>  (1) 
2-[(furan-2-ylmethyldisulfanyl)methyl]furan

$$$$
