
     RDKit          3D

 73 77  0  0  0  0  0  0  0  0999 V2000
   -6.7143    0.1995   -0.6741 C   0  0  0  0  0  0  0  0  0  0  0  0
   -5.7767    1.2611   -0.8093 N   0  0  0  0  0  0  0  0  0  0  0  0
   -5.9689    2.3977    0.0213 C   0  0  0  0  0  0  0  0  0  0  0  0
   -4.9147    2.5743    1.0859 C   0  0  0  0  0  0  0  0  0  0  0  0
   -4.2507    1.2243    1.2464 C   0  0  0  0  0  0  0  0  0  0  0  0
   -3.4686    0.8485   -0.0052 C   0  0  2  0  0  0  0  0  0  0  0  0
   -4.4491    0.9145   -1.1522 C   0  0  0  0  0  0  0  0  0  0  0  0
   -2.9570   -0.5150    0.2466 C   0  0  0  0  0  0  0  0  0  0  0  0
   -3.8100   -1.5674    0.4391 N   0  0  0  0  0  0  0  0  0  0  0  0
   -3.0974   -2.6664    0.6423 C   0  0  0  0  0  0  0  0  0  0  0  0
   -1.7737   -2.2928    0.5754 C   0  0  0  0  0  0  0  0  0  0  0  0
   -1.6844   -0.9491    0.3282 N   0  0  0  0  0  0  0  0  0  0  0  0
   -0.4887   -0.1586    0.1844 C   0  0  0  0  0  0  0  0  0  0  0  0
   -0.2429    0.3949   -1.1787 C   0  0  0  0  0  0  0  0  0  0  0  0
    0.8817    1.4323   -1.0151 C   0  0  0  0  0  0  0  0  0  0  0  0
    1.7575    0.9738    0.0151 N   0  0  0  0  0  0  0  0  0  0  0  0
    1.2462    1.1270    1.3331 C   0  0  0  0  0  0  0  0  0  0  0  0
   -0.2716    0.8670    1.2611 C   0  0  0  0  0  0  0  0  0  0  0  0
    3.1467    1.1053   -0.1832 C   0  0  0  0  0  0  0  0  0  0  0  0
    3.5120    2.5619   -0.5109 C   0  0  0  0  0  0  0  0  0  0  0  0
    3.9545    0.7942    1.0699 C   0  0  0  0  0  0  0  0  0  0  0  0
    5.4140    0.8510    0.7522 C   0  0  0  0  0  0  0  0  0  0  0  0
    6.0641   -0.5054    0.6520 C   0  0  0  0  0  0  0  0  0  0  0  0
    6.3471   -0.8405   -0.8108 C   0  0  0  0  0  0  0  0  0  0  0  0
    5.2374   -1.6767   -1.3543 C   0  0  0  0  0  0  0  0  0  0  0  0
    3.8518   -1.1908   -0.9644 C   0  0  0  0  0  0  0  0  0  0  0  0
    3.6181    0.2582   -1.3355 C   0  0  0  0  0  0  0  0  0  0  0  0
   -0.8142   -3.2732    0.7573 C   0  0  0  0  0  0  0  0  0  0  0  0
   -1.1788   -4.5850    0.9982 C   0  0  0  0  0  0  0  0  0  0  0  0
   -2.5176   -4.9617    1.0656 C   0  0  0  0  0  0  0  0  0  0  0  0
   -3.4794   -3.9706    0.8818 C   0  0  0  0  0  0  0  0  0  0  0  0
   -7.5753    0.4331   -1.3669 H   0  0  0  0  0  0  0  0  0  0  0  0
   -6.2816   -0.7337   -1.0821 H   0  0  0  0  0  0  0  0  0  0  0  0
   -7.1528    0.1009    0.3230 H   0  0  0  0  0  0  0  0  0  0  0  0
   -5.9864    3.3389   -0.5723 H   0  0  0  0  0  0  0  0  0  0  0  0
   -6.9852    2.2856    0.4951 H   0  0  0  0  0  0  0  0  0  0  0  0
   -5.4058    2.8005    2.0384 H   0  0  0  0  0  0  0  0  0  0  0  0
   -4.1327    3.2917    0.7748 H   0  0  0  0  0  0  0  0  0  0  0  0
   -3.6188    1.2600    2.1446 H   0  0  0  0  0  0  0  0  0  0  0  0
   -5.0456    0.4497    1.4388 H   0  0  0  0  0  0  0  0  0  0  0  0
   -2.7292    1.6232   -0.1470 H   0  0  0  0  0  0  0  0  0  0  0  0
   -4.1016    1.6413   -1.9382 H   0  0  0  0  0  0  0  0  0  0  0  0
   -4.4576   -0.0742   -1.6308 H   0  0  0  0  0  0  0  0  0  0  0  0
    0.3762   -0.8797    0.3374 H   0  0  0  0  0  0  0  0  0  0  0  0
    0.1642   -0.3983   -1.8438 H   0  0  0  0  0  0  0  0  0  0  0  0
   -1.0820    0.8471   -1.6928 H   0  0  0  0  0  0  0  0  0  0  0  0
    1.3551    1.5833   -1.9788 H   0  0  0  0  0  0  0  0  0  0  0  0
    0.3134    2.3571   -0.6773 H   0  0  0  0  0  0  0  0  0  0  0  0
    1.6669    0.3727    2.0396 H   0  0  0  0  0  0  0  0  0  0  0  0
    1.4393    2.1264    1.7515 H   0  0  0  0  0  0  0  0  0  0  0  0
   -0.6249    0.4308    2.2232 H   0  0  0  0  0  0  0  0  0  0  0  0
   -0.6931    1.8534    1.0720 H   0  0  0  0  0  0  0  0  0  0  0  0
    3.7632    3.1216    0.4129 H   0  0  0  0  0  0  0  0  0  0  0  0
    2.6407    3.0901   -0.9461 H   0  0  0  0  0  0  0  0  0  0  0  0
    4.3691    2.6324   -1.1893 H   0  0  0  0  0  0  0  0  0  0  0  0
    3.6148   -0.0804    1.6178 H   0  0  0  0  0  0  0  0  0  0  0  0
    3.7492    1.6715    1.7511 H   0  0  0  0  0  0  0  0  0  0  0  0
    5.6430    1.3860   -0.1839 H   0  0  0  0  0  0  0  0  0  0  0  0
    5.9791    1.4125    1.5462 H   0  0  0  0  0  0  0  0  0  0  0  0
    5.4454   -1.2764    1.1226 H   0  0  0  0  0  0  0  0  0  0  0  0
    7.0493   -0.5398    1.1634 H   0  0  0  0  0  0  0  0  0  0  0  0
    6.5153    0.0875   -1.4022 H   0  0  0  0  0  0  0  0  0  0  0  0
    7.2817   -1.4325   -0.8973 H   0  0  0  0  0  0  0  0  0  0  0  0
    5.3345   -2.6953   -0.8799 H   0  0  0  0  0  0  0  0  0  0  0  0
    5.3451   -1.8145   -2.4462 H   0  0  0  0  0  0  0  0  0  0  0  0
    3.6896   -1.4209    0.0946 H   0  0  0  0  0  0  0  0  0  0  0  0
    3.1512   -1.8791   -1.5165 H   0  0  0  0  0  0  0  0  0  0  0  0
    4.5171    0.6925   -1.8340 H   0  0  0  0  0  0  0  0  0  0  0  0
    2.8307    0.2629   -2.1107 H   0  0  0  0  0  0  0  0  0  0  0  0
    0.2354   -2.9838    0.7054 H   0  0  0  0  0  0  0  0  0  0  0  0
   -0.4213   -5.3711    1.1440 H   0  0  0  0  0  0  0  0  0  0  0  0
   -2.8039   -5.9880    1.2540 H   0  0  0  0  0  0  0  0  0  0  0  0
   -4.5442   -4.2170    0.9257 H   0  0  0  0  0  0  0  0  0  0  0  0
  1  2  1  0
  2  3  1  0
  3  4  1  0
  4  5  1  0
  5  6  1  0
  6  7  1  0
  6  8  1  0
  8  9  2  0
  9 10  1  0
 10 11  2  0
 11 12  1  0
 12 13  1  0
 13 14  1  0
 14 15  1  0
 15 16  1  0
 16 17  1  0
 17 18  1  0
 16 19  1  0
 19 20  1  0
 19 21  1  0
 21 22  1  0
 22 23  1  0
 23 24  1  0
 24 25  1  0
 25 26  1  0
 26 27  1  0
 11 28  1  0
 28 29  2  0
 29 30  1  0
 30 31  2  0
  7  2  1  0
 12  8  1  0
 18 13  1  0
 27 19  1  0
 31 10  1  0
  1 32  1  0
  1 33  1  0
  1 34  1  0
  3 35  1  0
  3 36  1  0
  4 37  1  0
  4 38  1  0
  5 39  1  0
  5 40  1  0
  6 41  1  6
  7 42  1  0
  7 43  1  0
 13 44  1  0
 14 45  1  0
 14 46  1  0
 15 47  1  0
 15 48  1  0
 17 49  1  0
 17 50  1  0
 18 51  1  0
 18 52  1  0
 20 53  1  0
 20 54  1  0
 20 55  1  0
 21 56  1  0
 21 57  1  0
 22 58  1  0
 22 59  1  0
 23 60  1  0
 23 61  1  0
 24 62  1  0
 24 63  1  0
 25 64  1  0
 25 65  1  0
 26 66  1  0
 26 67  1  0
 27 68  1  0
 27 69  1  0
 28 70  1  0
 29 71  1  0
 30 72  1  0
 31 73  1  0
M  END
>  <Ligand ID>  (1) 
LIG0001662

>  <Ligand>  (1) 
CHEMBL518950

>  <SMILES>  (1) 
CN1CCC[C@H](C1)c1nc2c(n1C1CCN(CC1)C1(C)CCCCCCC1)cccc2

>  <CID>  (1) 
25208095.0

>  <ChEMBL ID>  (1) 
nan

>  <InChiKey>  (1) 
POYRSGAKCBVQQE-JOCHJYFZSA-N

>  <InChi>  (1) 
InChI=1S/C27H42N4/c1-27(16-8-4-3-5-9-17-27)30-19-14-23(15-20-30)31-25-13-7-6-12-24(25)28-26(31)22-11-10-18-29(2)21-22/h6-7,12-13,22-23H,3-5,8-11,14-21H2,1-2H3/t22-/m1/s1

>  <IUPAC Name>  (1) 
1-[1-(1-methylcyclooctyl)piperidin-4-yl]-2-[(3R)-1-methylpiperidin-3-yl]benzimidazole

$$$$
