
     RDKit          3D

 58 59  0  0  0  0  0  0  0  0999 V2000
   -8.7220    1.8985   -1.0864 O   0  0  0  0  0  0  0  0  0  0  0  0
   -7.5939    1.1352   -0.7749 C   0  0  0  0  0  0  0  0  0  0  0  0
   -6.4902    1.6064   -1.1424 O   0  0  0  0  0  0  0  0  0  0  0  0
   -7.7717   -0.1374   -0.0551 C   0  0  0  0  0  0  0  0  0  0  0  0
   -7.6842    0.0141    1.4419 C   0  0  0  0  0  0  0  0  0  0  0  0
   -6.3673    0.5460    1.8891 C   0  0  0  0  0  0  0  0  0  0  0  0
   -6.0178    1.7812    1.4138 O   0  0  0  0  0  0  0  0  0  0  0  0
   -4.8813    2.2923    1.8768 N   0  0  0  0  0  0  0  0  0  0  0  0
   -3.5807    1.9712    1.4098 C   0  0  0  0  0  0  0  0  0  0  0  0
   -3.3819    1.0630    0.3938 C   0  0  0  0  0  0  0  0  0  0  0  0
   -2.0959    0.7609   -0.0513 C   0  0  0  0  0  0  0  0  0  0  0  0
   -1.0372    1.3513    0.5048 N   0  0  0  0  0  0  0  0  0  0  0  0
   -1.2653    2.2327    1.4940 C   0  0  0  0  0  0  0  0  0  0  0  0
   -0.2999    2.8192    2.0542 O   0  0  0  0  0  0  0  0  0  0  0  0
   -2.4948    2.5427    1.9429 N   0  0  0  0  0  0  0  0  0  0  0  0
    0.3305    1.1151    0.1249 C   0  0  2  0  0  0  0  0  0  0  0  0
    0.4940    0.0256   -0.7158 O   0  0  0  0  0  0  0  0  0  0  0  0
    1.8556   -0.2517   -0.6116 C   0  0  1  0  0  0  0  0  0  0  0  0
    1.9703   -0.3970    0.9013 C   0  0  2  0  0  0  0  0  0  0  0  0
    1.2202    0.8700    1.3267 C   0  0  1  0  0  0  0  0  0  0  0  0
    2.1642    1.8866    1.4451 O   0  0  0  0  0  0  0  0  0  0  0  0
    3.2711   -0.4258    1.3476 O   0  0  0  0  0  0  0  0  0  0  0  0
    2.2658   -1.5100   -1.3272 C   0  0  0  0  0  0  0  0  0  0  0  0
    3.6519   -1.6646   -1.1408 O   0  0  0  0  0  0  0  0  0  0  0  0
    4.2146   -3.0553   -1.9097 P   0  0  0  0  0  0  0  0  0  0  0  0
    4.6181   -2.7671   -3.3536 O   0  0  0  0  0  0  0  0  0  0  0  0
    5.5581   -3.7088   -1.1048 O   0  0  0  0  0  0  0  0  0  0  0  0
    6.8016   -2.5649   -1.0195 P   0  0  0  0  0  0  0  0  0  0  0  0
    6.9193   -1.7732   -2.3214 O   0  0  0  0  0  0  0  0  0  0  0  0
    6.5908   -1.4826    0.2457 O   0  0  0  0  0  0  0  0  0  0  0  0
    6.9292    0.1091   -0.1830 P   0  0  0  0  0  0  0  0  0  0  0  0
    6.6701    0.3861   -1.6489 O   0  0  0  0  0  0  0  0  0  0  0  0
    5.9791    1.1182    0.7876 O   0  0  0  0  0  0  0  0  0  0  0  0
    8.5509    0.4722    0.1456 O   0  0  0  0  0  0  0  0  0  0  0  0
    8.2915   -3.3372   -0.7940 O   0  0  0  0  0  0  0  0  0  0  0  0
    2.9968   -4.2252   -1.9057 O   0  0  0  0  0  0  0  0  0  0  0  0
   -8.6175    2.8825   -1.3652 H   0  0  0  0  0  0  0  0  0  0  0  0
   -8.7755   -0.5459   -0.3623 H   0  0  0  0  0  0  0  0  0  0  0  0
   -6.9992   -0.8437   -0.4276 H   0  0  0  0  0  0  0  0  0  0  0  0
   -7.8882   -0.9525    1.9503 H   0  0  0  0  0  0  0  0  0  0  0  0
   -8.4829    0.7401    1.7306 H   0  0  0  0  0  0  0  0  0  0  0  0
   -5.5664   -0.2243    1.7017 H   0  0  0  0  0  0  0  0  0  0  0  0
   -6.3707    0.6344    3.0115 H   0  0  0  0  0  0  0  0  0  0  0  0
   -4.9668    3.0016    2.6645 H   0  0  0  0  0  0  0  0  0  0  0  0
   -4.1846    0.5586   -0.0902 H   0  0  0  0  0  0  0  0  0  0  0  0
   -1.9294    0.0580   -0.8390 H   0  0  0  0  0  0  0  0  0  0  0  0
    0.7299    1.9915   -0.4443 H   0  0  0  0  0  0  0  0  0  0  0  0
    2.4494    0.6220   -0.8924 H   0  0  0  0  0  0  0  0  0  0  0  0
    1.3599   -1.2605    1.2633 H   0  0  0  0  0  0  0  0  0  0  0  0
    0.6446    0.6877    2.2586 H   0  0  0  0  0  0  0  0  0  0  0  0
    3.0624    1.4900    1.5959 H   0  0  0  0  0  0  0  0  0  0  0  0
    3.3918   -1.2833    1.8574 H   0  0  0  0  0  0  0  0  0  0  0  0
    2.0585   -1.3475   -2.4043 H   0  0  0  0  0  0  0  0  0  0  0  0
    1.7632   -2.4057   -0.9541 H   0  0  0  0  0  0  0  0  0  0  0  0
    6.0784    2.0276    0.4214 H   0  0  0  0  0  0  0  0  0  0  0  0
    8.6611    1.4493    0.0414 H   0  0  0  0  0  0  0  0  0  0  0  0
    8.7413   -3.0689    0.0417 H   0  0  0  0  0  0  0  0  0  0  0  0
    3.1809   -4.9079   -2.6201 H   0  0  0  0  0  0  0  0  0  0  0  0
  1  2  1  0
  2  3  2  0
  2  4  1  0
  4  5  1  0
  5  6  1  0
  6  7  1  0
  7  8  1  0
  8  9  1  0
  9 10  1  0
 10 11  2  0
 11 12  1  0
 12 13  1  0
 13 14  2  0
 13 15  1  0
 12 16  1  0
 16 17  1  0
 17 18  1  0
 18 19  1  0
 19 20  1  0
 20 21  1  0
 19 22  1  0
 18 23  1  0
 23 24  1  0
 24 25  1  0
 25 26  2  0
 25 27  1  0
 27 28  1  0
 28 29  2  0
 28 30  1  0
 30 31  1  0
 31 32  2  0
 31 33  1  0
 31 34  1  0
 28 35  1  0
 25 36  1  0
 15  9  2  0
 20 16  1  0
  1 37  1  0
  4 38  1  0
  4 39  1  0
  5 40  1  0
  5 41  1  0
  6 42  1  0
  6 43  1  0
  8 44  1  0
 10 45  1  0
 11 46  1  0
 16 47  1  6
 18 48  1  6
 19 49  1  1
 20 50  1  1
 21 51  1  0
 22 52  1  0
 23 53  1  0
 23 54  1  0
 33 55  1  0
 34 56  1  0
 35 57  1  0
 36 58  1  0
M  END
>  <Ligand ID>  (1) 
LIG0002807

>  <Ligand>  (1) 
CHEMBL3261359

>  <SMILES>  (1) 
OC(=O)CCCONc1ccn(c(=O)n1)[C@@H]1O[C@@H]([C@H]([C@H]1O)O)COP(=O)(OP(=O)(OP(=O)(O)O)O)O

>  <CID>  (1) 
90656210.0

>  <ChEMBL ID>  (1) 
nan

>  <InChiKey>  (1) 
RFTFMAKDHFXRTP-FAQVLOEFSA-N

>  <InChi>  (1) 
InChI=1S/C13H22N3O17P3/c17-9(18)2-1-5-29-15-8-3-4-16(13(21)14-8)12-11(20)10(19)7(31-12)6-30-35(25,26)33-36(27,28)32-34(22,23)24/h3-4,7,10-12,19-20H,1-2,5-6H2,(H,17,18)(H,25,26)(H,27,28)(H,14,15,21)(H2,22,23,24)/t7-,10-,11-,12-/m1/s1

>  <IUPAC Name>  (1) 
4-[[1-[(2R,3R,4S,5R)-3,4-dihydroxy-5-[[hydroxy-[hydroxy(phosphonooxy)phosphoryl]oxyphosphoryl]oxymethyl]oxolan-2-yl]-2-oxopyrimidin-4-yl]amino]oxybutanoic acid

$$$$
