
     RDKit          3D

 75 80  0  0  0  0  0  0  0  0999 V2000
   -5.6357   -1.4652    2.4307 C   0  0  0  0  0  0  0  0  0  0  0  0
   -4.7884   -1.4484    1.1820 C   0  0  0  0  0  0  0  0  0  0  0  0
   -5.5902   -1.3062   -0.0682 C   0  0  0  0  0  0  0  0  0  0  0  0
   -4.7083   -1.6757   -1.2396 C   0  0  0  0  0  0  0  0  0  0  0  0
   -3.3080   -1.2498   -1.0456 C   0  0  0  0  0  0  0  0  0  0  0  0
   -2.8294   -0.6328    0.0887 C   0  0  0  0  0  0  0  0  0  0  0  0
   -3.7416   -0.3526    1.2266 C   0  0  0  0  0  0  0  0  0  0  0  0
   -3.0156   -0.4151    2.5574 C   0  0  0  0  0  0  0  0  0  0  0  0
   -4.3342    1.0053    1.0785 C   0  0  0  0  0  0  0  0  0  0  0  0
   -5.2144    1.0749   -0.1221 C   0  0  0  0  0  0  0  0  0  0  0  0
   -6.0852   -0.0008   -0.3167 N   0  0  0  0  0  0  0  0  0  0  0  0
   -7.2987    0.1606   -0.9884 C   0  0  0  0  0  0  0  0  0  0  0  0
   -8.3618    0.9726   -0.3317 C   0  0  0  0  0  0  0  0  0  0  0  0
   -9.6558    1.0700   -1.1843 C   0  0  0  0  0  0  0  0  0  0  0  0
   -8.8155    2.2834   -0.9005 C   0  0  0  0  0  0  0  0  0  0  0  0
   -1.4799   -0.2678    0.1778 C   0  0  0  0  0  0  0  0  0  0  0  0
   -0.5961   -0.5105   -0.8534 C   0  0  0  0  0  0  0  0  0  0  0  0
   -1.1007   -1.1278   -1.9742 C   0  0  0  0  0  0  0  0  0  0  0  0
   -2.4232   -1.4928   -2.0779 C   0  0  0  0  0  0  0  0  0  0  0  0
    0.7948   -0.1111   -0.7013 C   0  0  0  0  0  0  0  0  0  0  0  0
    1.0851    0.4472    0.4120 O   0  0  0  0  0  0  0  0  0  0  0  0
    1.7885   -0.3083   -1.6916 N   0  0  0  0  0  0  0  0  0  0  0  0
    3.1731    0.0848   -1.5427 C   0  0  0  0  0  0  0  0  0  0  0  0
    3.7700   -0.6346   -0.3775 C   0  0  0  0  0  0  0  0  0  0  0  0
    5.2156   -0.2650   -0.1814 C   0  0  0  0  0  0  0  0  0  0  0  0
    5.5834    0.7985    0.6269 C   0  0  0  0  0  0  0  0  0  0  0  0
    6.9298    1.0701    0.7515 C   0  0  0  0  0  0  0  0  0  0  0  0
    7.8825    0.3145    0.0979 C   0  0  0  0  0  0  0  0  0  0  0  0
    7.4989   -0.7310   -0.6953 C   0  0  0  0  0  0  0  0  0  0  0  0
    6.1563   -1.0411   -0.8503 C   0  0  0  0  0  0  0  0  0  0  0  0
    9.3084    0.6145    0.2381 C   0  0  0  0  0  0  0  0  0  0  0  0
   10.0382    0.6046   -0.9561 C   0  0  0  0  0  0  0  0  0  0  0  0
   11.3908    0.8808   -0.8893 C   0  0  0  0  0  0  0  0  0  0  0  0
   12.0161    1.1593    0.3101 C   0  0  0  0  0  0  0  0  0  0  0  0
   11.2563    1.1605    1.4827 C   0  0  0  0  0  0  0  0  0  0  0  0
    9.9063    0.8886    1.4448 C   0  0  0  0  0  0  0  0  0  0  0  0
    9.1397    0.8863    2.6003 O   0  0  0  0  0  0  0  0  0  0  0  0
   -6.5927   -1.9841    2.1958 H   0  0  0  0  0  0  0  0  0  0  0  0
   -5.8270   -0.3991    2.7509 H   0  0  0  0  0  0  0  0  0  0  0  0
   -5.1601   -1.9900    3.2789 H   0  0  0  0  0  0  0  0  0  0  0  0
   -4.2431   -2.4131    1.1381 H   0  0  0  0  0  0  0  0  0  0  0  0
   -6.4553   -2.0187    0.0017 H   0  0  0  0  0  0  0  0  0  0  0  0
   -5.1094   -1.1810   -2.1738 H   0  0  0  0  0  0  0  0  0  0  0  0
   -4.7374   -2.7580   -1.4552 H   0  0  0  0  0  0  0  0  0  0  0  0
   -2.4250    0.5259    2.6900 H   0  0  0  0  0  0  0  0  0  0  0  0
   -2.2886   -1.2475    2.6085 H   0  0  0  0  0  0  0  0  0  0  0  0
   -3.7814   -0.4412    3.3616 H   0  0  0  0  0  0  0  0  0  0  0  0
   -4.8246    1.3740    2.0009 H   0  0  0  0  0  0  0  0  0  0  0  0
   -3.4774    1.7172    0.8936 H   0  0  0  0  0  0  0  0  0  0  0  0
   -5.8156    2.0232   -0.1492 H   0  0  0  0  0  0  0  0  0  0  0  0
   -4.5457    1.1593   -1.0191 H   0  0  0  0  0  0  0  0  0  0  0  0
   -7.0906    0.6408   -1.9862 H   0  0  0  0  0  0  0  0  0  0  0  0
   -7.6786   -0.8608   -1.2770 H   0  0  0  0  0  0  0  0  0  0  0  0
   -8.5025    0.8658    0.7593 H   0  0  0  0  0  0  0  0  0  0  0  0
   -9.6256    0.7088   -2.2193 H   0  0  0  0  0  0  0  0  0  0  0  0
  -10.5831    0.8945   -0.6026 H   0  0  0  0  0  0  0  0  0  0  0  0
   -9.2906    3.0097   -0.2194 H   0  0  0  0  0  0  0  0  0  0  0  0
   -8.2877    2.7507   -1.7452 H   0  0  0  0  0  0  0  0  0  0  0  0
   -1.1843    0.2126    1.1017 H   0  0  0  0  0  0  0  0  0  0  0  0
   -0.4550   -1.3424   -2.8131 H   0  0  0  0  0  0  0  0  0  0  0  0
   -2.7655   -1.9803   -2.9943 H   0  0  0  0  0  0  0  0  0  0  0  0
    1.4712   -0.7716   -2.5803 H   0  0  0  0  0  0  0  0  0  0  0  0
    3.7231   -0.1905   -2.4625 H   0  0  0  0  0  0  0  0  0  0  0  0
    3.2253    1.1860   -1.3968 H   0  0  0  0  0  0  0  0  0  0  0  0
    3.6401   -1.7319   -0.5026 H   0  0  0  0  0  0  0  0  0  0  0  0
    3.2710   -0.2979    0.5519 H   0  0  0  0  0  0  0  0  0  0  0  0
    4.8281    1.3889    1.1385 H   0  0  0  0  0  0  0  0  0  0  0  0
    7.2636    1.8873    1.3695 H   0  0  0  0  0  0  0  0  0  0  0  0
    8.2620   -1.2997   -1.1904 H   0  0  0  0  0  0  0  0  0  0  0  0
    5.9190   -1.8640   -1.4791 H   0  0  0  0  0  0  0  0  0  0  0  0
    9.5751    0.3900   -1.9100 H   0  0  0  0  0  0  0  0  0  0  0  0
   11.9379    0.8683   -1.8254 H   0  0  0  0  0  0  0  0  0  0  0  0
   13.0564    1.3732    0.3709 H   0  0  0  0  0  0  0  0  0  0  0  0
   11.7193    1.3777    2.4550 H   0  0  0  0  0  0  0  0  0  0  0  0
    8.9032   -0.0224    2.9975 H   0  0  0  0  0  0  0  0  0  0  0  0
  1  2  1  0
  2  3  1  0
  3  4  1  0
  4  5  1  0
  5  6  2  0
  6  7  1  0
  7  8  1  0
  7  9  1  0
  9 10  1  0
 10 11  1  0
 11 12  1  0
 12 13  1  0
 13 14  1  0
 14 15  1  0
  6 16  1  0
 16 17  2  0
 17 18  1  0
 18 19  2  0
 17 20  1  0
 20 21  2  0
 20 22  1  0
 22 23  1  0
 23 24  1  0
 24 25  1  0
 25 26  2  0
 26 27  1  0
 27 28  2  0
 28 29  1  0
 29 30  2  0
 28 31  1  0
 31 32  2  0
 32 33  1  0
 33 34  2  0
 34 35  1  0
 35 36  2  0
 36 37  1  0
  7  2  1  0
 15 13  1  0
 30 25  1  0
 36 31  1  0
 11  3  1  0
 19  5  1  0
  1 38  1  0
  1 39  1  0
  1 40  1  0
  2 41  1  0
  3 42  1  0
  4 43  1  0
  4 44  1  0
  8 45  1  0
  8 46  1  0
  8 47  1  0
  9 48  1  0
  9 49  1  0
 10 50  1  0
 10 51  1  0
 12 52  1  0
 12 53  1  0
 13 54  1  0
 14 55  1  0
 14 56  1  0
 15 57  1  0
 15 58  1  0
 16 59  1  0
 18 60  1  0
 19 61  1  0
 22 62  1  0
 23 63  1  0
 23 64  1  0
 24 65  1  0
 24 66  1  0
 26 67  1  0
 27 68  1  0
 29 69  1  0
 30 70  1  0
 32 71  1  0
 33 72  1  0
 34 73  1  0
 35 74  1  0
 37 75  1  0
M  END
>  <Ligand ID>  (1) 
LIG0003997

>  <Ligand>  (1) 
CHEMBL2208349

>  <SMILES>  (1) 
CC1C2Cc3c(C1(C)CCN2CC1CC1)cc(cc3)C(=O)NCCc1ccc(cc1)c1ccccc1O

>  <CID>  (1) 
71456106.0

>  <ChEMBL ID>  (1) 
nan

>  <InChiKey>  (1) 
XDPGTKZCXIUYTQ-UHFFFAOYSA-N

>  <InChi>  (1) 
InChI=1S/C33H38N2O2/c1-22-30-20-26-13-14-27(19-29(26)33(22,2)16-18-35(30)21-24-7-8-24)32(37)34-17-15-23-9-11-25(12-10-23)28-5-3-4-6-31(28)36/h3-6,9-14,19,22,24,30,36H,7-8,15-18,20-21H2,1-2H3,(H,34,37)

>  <IUPAC Name>  (1) 
10-(cyclopropylmethyl)-N-[2-[4-(2-hydroxyphenyl)phenyl]ethyl]-1,13-dimethyl-10-azatricyclo[7.3.1.02,7]trideca-2(7),3,5-triene-4-carboxamide

$$$$
