
     RDKit          3D

 65 69  0  0  0  0  0  0  0  0999 V2000
   -7.7793    1.1731   -2.1119 O   0  0  0  0  0  0  0  0  0  0  0  0
   -6.5275    1.0356   -1.5348 C   0  0  0  0  0  0  0  0  0  0  0  0
   -5.6412    0.0425   -1.8870 C   0  0  0  0  0  0  0  0  0  0  0  0
   -4.3882   -0.0664   -1.2852 C   0  0  0  0  0  0  0  0  0  0  0  0
   -3.4910   -1.1565   -1.7277 C   0  0  0  0  0  0  0  0  0  0  0  0
   -3.9826    0.8314   -0.2970 C   0  0  0  0  0  0  0  0  0  0  0  0
   -4.8847    1.8466    0.0648 C   0  0  0  0  0  0  0  0  0  0  0  0
   -6.1278    1.9178   -0.5639 C   0  0  0  0  0  0  0  0  0  0  0  0
   -4.5503    2.8512    1.0951 C   0  0  0  0  0  0  0  0  0  0  0  0
   -2.6738    0.7406    0.3614 C   0  0  0  0  0  0  0  0  0  0  0  0
   -2.5740   -0.3545    1.4068 C   0  0  1  0  0  0  0  0  0  0  0  0
   -1.2006   -0.2950    1.9694 C   0  0  0  0  0  0  0  0  0  0  0  0
   -1.1228    0.1653    3.1621 O   0  0  0  0  0  0  0  0  0  0  0  0
   -0.0323   -0.7017    1.2877 N   0  0  0  0  0  0  0  0  0  0  0  0
   -0.0202   -1.2568   -0.0491 C   0  0  0  0  0  0  0  0  0  0  0  0
    0.9539   -2.3929   -0.1348 C   0  0  0  0  0  0  0  0  0  0  0  0
    0.8702   -3.1576   -1.2970 C   0  0  0  0  0  0  0  0  0  0  0  0
    1.7180   -4.2308   -1.4811 C   0  0  0  0  0  0  0  0  0  0  0  0
    2.6385   -4.5211   -0.4950 C   0  0  0  0  0  0  0  0  0  0  0  0
    2.7125   -3.7488    0.6628 C   0  0  0  0  0  0  0  0  0  0  0  0
    1.8646   -2.6778    0.8440 C   0  0  0  0  0  0  0  0  0  0  0  0
    1.9543   -1.8665    2.0791 C   0  0  0  0  0  0  0  0  0  0  0  0
    1.2509   -0.5553    1.9484 C   0  0  1  0  0  0  0  0  0  0  0  0
    2.0555    0.4151    1.1610 C   0  0  0  0  0  0  0  0  0  0  0  0
    1.5801    1.5936    0.6776 N   0  0  0  0  0  0  0  0  0  0  0  0
    2.5757    2.2075    0.0208 C   0  0  0  0  0  0  0  0  0  0  0  0
    3.7046    1.4255    0.0763 C   0  0  0  0  0  0  0  0  0  0  0  0
    3.3456    0.3321    0.7854 N   0  0  0  0  0  0  0  0  0  0  0  0
    4.9904    1.7550   -0.5222 C   0  0  0  0  0  0  0  0  0  0  0  0
    5.1869    2.9355   -1.2240 C   0  0  0  0  0  0  0  0  0  0  0  0
    6.4168    3.2211   -1.7804 C   0  0  0  0  0  0  0  0  0  0  0  0
    7.5021    2.3598   -1.6705 C   0  0  0  0  0  0  0  0  0  0  0  0
    7.3036    1.1854   -0.9713 C   0  0  0  0  0  0  0  0  0  0  0  0
    6.0671    0.9054   -0.4157 C   0  0  0  0  0  0  0  0  0  0  0  0
   -3.4654   -0.0495    2.5334 N   0  0  0  0  0  0  0  0  0  0  0  0
   -8.5858    1.0835   -1.5055 H   0  0  0  0  0  0  0  0  0  0  0  0
   -5.9632   -0.6517   -2.6550 H   0  0  0  0  0  0  0  0  0  0  0  0
   -3.5286   -2.0621   -1.1011 H   0  0  0  0  0  0  0  0  0  0  0  0
   -3.8582   -1.5092   -2.7383 H   0  0  0  0  0  0  0  0  0  0  0  0
   -2.4666   -0.7850   -1.9463 H   0  0  0  0  0  0  0  0  0  0  0  0
   -6.8093    2.6983   -0.2783 H   0  0  0  0  0  0  0  0  0  0  0  0
   -4.6913    2.4097    2.0784 H   0  0  0  0  0  0  0  0  0  0  0  0
   -3.5856    3.3723    0.9289 H   0  0  0  0  0  0  0  0  0  0  0  0
   -5.3149    3.6775    1.0098 H   0  0  0  0  0  0  0  0  0  0  0  0
   -1.8670    0.6027   -0.3686 H   0  0  0  0  0  0  0  0  0  0  0  0
   -2.4832    1.6841    0.9302 H   0  0  0  0  0  0  0  0  0  0  0  0
   -2.7824   -1.3561    1.0505 H   0  0  0  0  0  0  0  0  0  0  0  0
   -1.0654   -1.6387   -0.2247 H   0  0  0  0  0  0  0  0  0  0  0  0
    0.2100   -0.4871   -0.7841 H   0  0  0  0  0  0  0  0  0  0  0  0
    0.1376   -2.9253   -2.0804 H   0  0  0  0  0  0  0  0  0  0  0  0
    1.6194   -4.7987   -2.3976 H   0  0  0  0  0  0  0  0  0  0  0  0
    3.2867   -5.3668   -0.6686 H   0  0  0  0  0  0  0  0  0  0  0  0
    3.4581   -4.0298    1.3987 H   0  0  0  0  0  0  0  0  0  0  0  0
    1.4707   -2.4603    2.9057 H   0  0  0  0  0  0  0  0  0  0  0  0
    3.0362   -1.7043    2.3307 H   0  0  0  0  0  0  0  0  0  0  0  0
    1.1043   -0.1486    2.9524 H   0  0  0  0  0  0  0  0  0  0  0  0
    2.4628    3.1730   -0.4650 H   0  0  0  0  0  0  0  0  0  0  0  0
    3.9968   -0.4489    0.9966 H   0  0  0  0  0  0  0  0  0  0  0  0
    4.3862    3.6315   -1.3381 H   0  0  0  0  0  0  0  0  0  0  0  0
    6.5528    4.1443   -2.3227 H   0  0  0  0  0  0  0  0  0  0  0  0
    8.4688    2.5789   -2.1049 H   0  0  0  0  0  0  0  0  0  0  0  0
    8.1525    0.5153   -0.8871 H   0  0  0  0  0  0  0  0  0  0  0  0
    5.9386   -0.0179    0.1257 H   0  0  0  0  0  0  0  0  0  0  0  0
   -3.1154   -0.6137    3.3441 H   0  0  0  0  0  0  0  0  0  0  0  0
   -4.3945   -0.4758    2.2834 H   0  0  0  0  0  0  0  0  0  0  0  0
  1  2  1  0
  2  3  2  0
  3  4  1  0
  4  5  1  0
  4  6  2  0
  6  7  1  0
  7  8  2  0
  7  9  1  0
  6 10  1  0
 10 11  1  0
 11 12  1  0
 12 13  2  0
 12 14  1  0
 14 15  1  0
 15 16  1  0
 16 17  2  0
 17 18  1  0
 18 19  2  0
 19 20  1  0
 20 21  2  0
 21 22  1  0
 22 23  1  0
 23 24  1  0
 24 25  2  0
 25 26  1  0
 26 27  2  0
 27 28  1  0
 27 29  1  0
 29 30  2  0
 30 31  1  0
 31 32  2  0
 32 33  1  0
 33 34  2  0
 11 35  1  0
  8  2  1  0
 23 14  1  0
 28 24  1  0
 34 29  1  0
 21 16  1  0
  1 36  1  0
  3 37  1  0
  5 38  1  0
  5 39  1  0
  5 40  1  0
  8 41  1  0
  9 42  1  0
  9 43  1  0
  9 44  1  0
 10 45  1  0
 10 46  1  0
 11 47  1  6
 15 48  1  0
 15 49  1  0
 17 50  1  0
 18 51  1  0
 19 52  1  0
 20 53  1  0
 22 54  1  0
 22 55  1  0
 23 56  1  1
 26 57  1  0
 28 58  1  0
 30 59  1  0
 31 60  1  0
 32 61  1  0
 33 62  1  0
 34 63  1  0
 35 64  1  0
 35 65  1  0
M  END
>  <Ligand ID>  (1) 
LIG0003765

>  <Ligand>  (1) 
CHEMBL208454

>  <SMILES>  (1) 
Oc1cc(C)c(c(c1)C)C[C@@H](C(=O)N1Cc2ccccc2C[C@H]1c1ncc([nH]1)c1ccccc1)N

>  <CID>  (1) 
10479670.0

>  <ChEMBL ID>  (1) 
nan

>  <InChiKey>  (1) 
WIEPDHSIJOOHOZ-BDYUSTAISA-N

>  <InChi>  (1) 
InChI=1S/C29H30N4O2/c1-18-12-23(34)13-19(2)24(18)15-25(30)29(35)33-17-22-11-7-6-10-21(22)14-27(33)28-31-16-26(32-28)20-8-4-3-5-9-20/h3-13,16,25,27,34H,14-15,17,30H2,1-2H3,(H,31,32)/t25-,27-/m0/s1

>  <IUPAC Name>  (1) 
(2S)-2-amino-3-(4-hydroxy-2,6-dimethylphenyl)-1-[(3S)-3-(5-phenyl-1H-imidazol-2-yl)-3,4-dihydro-1H-isoquinolin-2-yl]propan-1-one

$$$$
