
     RDKit          3D

 62 66  0  0  0  0  0  0  0  0999 V2000
    6.8209    1.4028    1.8862 C   0  0  0  0  0  0  0  0  0  0  0  0
    5.5801    0.7709    2.4248 C   0  0  0  0  0  0  0  0  0  0  0  0
    4.5297    0.6173    1.5189 O   0  0  0  0  0  0  0  0  0  0  0  0
    4.6394   -0.1580    0.3922 C   0  0  0  0  0  0  0  0  0  0  0  0
    5.8247   -0.8270    0.1395 C   0  0  0  0  0  0  0  0  0  0  0  0
    6.0013   -1.6274   -0.9845 C   0  0  0  0  0  0  0  0  0  0  0  0
    4.9310   -1.7228   -1.8394 C   0  0  0  0  0  0  0  0  0  0  0  0
    3.7499   -1.0571   -1.5872 C   0  0  0  0  0  0  0  0  0  0  0  0
    3.5629   -0.2529   -0.4649 C   0  0  0  0  0  0  0  0  0  0  0  0
    2.3089    0.3627   -0.2765 N   0  0  0  0  0  0  0  0  0  0  0  0
    1.4269    0.5557   -1.4482 C   0  0  0  0  0  0  0  0  0  0  0  0
    0.2357   -0.3801   -1.2196 C   0  0  0  0  0  0  0  0  0  0  0  0
   -0.3996    0.0763    0.0245 N   0  0  0  0  0  0  0  0  0  0  0  0
    0.4131    0.0871    1.1972 C   0  0  0  0  0  0  0  0  0  0  0  0
    1.7550    0.8130    0.9697 C   0  0  0  0  0  0  0  0  0  0  0  0
   -1.7494    0.4984    0.0848 C   0  0  0  0  0  0  0  0  0  0  0  0
   -2.0070    1.7807    0.4392 N   0  0  0  0  0  0  0  0  0  0  0  0
   -3.2692    2.2586    0.5129 C   0  0  0  0  0  0  0  0  0  0  0  0
   -4.3385    1.4755    0.2351 N   0  0  0  0  0  0  0  0  0  0  0  0
   -4.1162    0.2095   -0.1162 C   0  0  0  0  0  0  0  0  0  0  0  0
   -2.8319   -0.2981   -0.1973 C   0  0  0  0  0  0  0  0  0  0  0  0
   -2.6471   -1.5936   -0.5567 C   0  0  0  0  0  0  0  0  0  0  0  0
   -3.7225   -2.4031   -0.8404 C   0  0  0  0  0  0  0  0  0  0  0  0
   -3.5040   -3.7037   -1.1997 O   0  0  0  0  0  0  0  0  0  0  0  0
   -2.2627   -4.3253   -1.3150 C   0  0  0  0  0  0  0  0  0  0  0  0
   -5.0146   -1.9259   -0.7687 C   0  0  0  0  0  0  0  0  0  0  0  0
   -5.2133   -0.6087   -0.4036 C   0  0  0  0  0  0  0  0  0  0  0  0
   -6.0511   -2.7979   -1.0684 O   0  0  0  0  0  0  0  0  0  0  0  0
   -7.4099   -2.3884   -1.0192 C   0  0  0  0  0  0  0  0  0  0  0  0
   -3.4409    3.6687    0.9081 C   0  0  0  0  0  0  0  0  0  0  0  0
   -2.5202    4.6603    0.2777 C   0  0  0  0  0  0  0  0  0  0  0  0
   -2.4804    4.3656    1.7657 C   0  0  0  0  0  0  0  0  0  0  0  0
    7.7546    0.8584    2.1341 H   0  0  0  0  0  0  0  0  0  0  0  0
    6.8068    1.5846    0.7797 H   0  0  0  0  0  0  0  0  0  0  0  0
    6.9645    2.4051    2.4028 H   0  0  0  0  0  0  0  0  0  0  0  0
    5.1691    1.3385    3.3131 H   0  0  0  0  0  0  0  0  0  0  0  0
    5.8907   -0.2115    2.8851 H   0  0  0  0  0  0  0  0  0  0  0  0
    6.6857   -0.7813    0.7997 H   0  0  0  0  0  0  0  0  0  0  0  0
    6.9344   -2.1403   -1.1632 H   0  0  0  0  0  0  0  0  0  0  0  0
    5.0452   -2.3475   -2.7326 H   0  0  0  0  0  0  0  0  0  0  0  0
    2.9657   -1.2133   -2.3292 H   0  0  0  0  0  0  0  0  0  0  0  0
    1.9008    0.4255   -2.3974 H   0  0  0  0  0  0  0  0  0  0  0  0
    1.0059    1.5889   -1.3379 H   0  0  0  0  0  0  0  0  0  0  0  0
    0.5592   -1.4268   -1.1779 H   0  0  0  0  0  0  0  0  0  0  0  0
   -0.4209   -0.2584   -2.1007 H   0  0  0  0  0  0  0  0  0  0  0  0
    0.7271   -0.9429    1.5167 H   0  0  0  0  0  0  0  0  0  0  0  0
   -0.0798    0.6529    2.0132 H   0  0  0  0  0  0  0  0  0  0  0  0
    2.3510    0.6835    1.8597 H   0  0  0  0  0  0  0  0  0  0  0  0
    1.4342    1.8801    0.7863 H   0  0  0  0  0  0  0  0  0  0  0  0
   -1.6687   -1.9922   -0.6192 H   0  0  0  0  0  0  0  0  0  0  0  0
   -1.9385   -4.6151   -0.2734 H   0  0  0  0  0  0  0  0  0  0  0  0
   -1.4561   -3.6976   -1.7265 H   0  0  0  0  0  0  0  0  0  0  0  0
   -2.3581   -5.2813   -1.8676 H   0  0  0  0  0  0  0  0  0  0  0  0
   -6.2189   -0.2157   -0.3416 H   0  0  0  0  0  0  0  0  0  0  0  0
   -7.6668   -1.8144   -1.9435 H   0  0  0  0  0  0  0  0  0  0  0  0
   -7.5755   -1.7259   -0.1432 H   0  0  0  0  0  0  0  0  0  0  0  0
   -8.0900   -3.2411   -0.9375 H   0  0  0  0  0  0  0  0  0  0  0  0
   -4.5058    4.0236    0.9564 H   0  0  0  0  0  0  0  0  0  0  0  0
   -2.8971    5.6369   -0.0665 H   0  0  0  0  0  0  0  0  0  0  0  0
   -1.7107    4.2579   -0.3437 H   0  0  0  0  0  0  0  0  0  0  0  0
   -1.5964    3.8397    2.1807 H   0  0  0  0  0  0  0  0  0  0  0  0
   -2.8126    5.1964    2.4030 H   0  0  0  0  0  0  0  0  0  0  0  0
  1  2  1  0
  2  3  1  0
  3  4  1  0
  4  5  2  0
  5  6  1  0
  6  7  2  0
  7  8  1  0
  8  9  2  0
  9 10  1  0
 10 11  1  0
 11 12  1  0
 12 13  1  0
 13 14  1  0
 14 15  1  0
 13 16  1  0
 16 17  2  0
 17 18  1  0
 18 19  2  0
 19 20  1  0
 20 21  2  0
 21 22  1  0
 22 23  2  0
 23 24  1  0
 24 25  1  0
 23 26  1  0
 26 27  2  0
 26 28  1  0
 28 29  1  0
 18 30  1  0
 30 31  1  0
 31 32  1  0
  9  4  1  0
 15 10  1  0
 21 16  1  0
 32 30  1  0
 27 20  1  0
  1 33  1  0
  1 34  1  0
  1 35  1  0
  2 36  1  0
  2 37  1  0
  5 38  1  0
  6 39  1  0
  7 40  1  0
  8 41  1  0
 11 42  1  0
 11 43  1  0
 12 44  1  0
 12 45  1  0
 14 46  1  0
 14 47  1  0
 15 48  1  0
 15 49  1  0
 22 50  1  0
 25 51  1  0
 25 52  1  0
 25 53  1  0
 27 54  1  0
 29 55  1  0
 29 56  1  0
 29 57  1  0
 30 58  1  0
 31 59  1  0
 31 60  1  0
 32 61  1  0
 32 62  1  0
M  END
>  <Ligand ID>  (1) 
LIG0004490

>  <Ligand>  (1) 
CHEMBL2431130

>  <SMILES>  (1) 
CCOc1ccccc1N1CCN(CC1)c1nc(nc2c1cc(OC)c(c2)OC)C1CC1

>  <CID>  (1) 
56593290.0

>  <ChEMBL ID>  (1) 
nan

>  <InChiKey>  (1) 
XIRHJHRIOVVCQO-UHFFFAOYSA-N

>  <InChi>  (1) 
InChI=1S/C25H30N4O3/c1-4-32-21-8-6-5-7-20(21)28-11-13-29(14-12-28)25-18-15-22(30-2)23(31-3)16-19(18)26-24(27-25)17-9-10-17/h5-8,15-17H,4,9-14H2,1-3H3

>  <IUPAC Name>  (1) 
2-cyclopropyl-4-[4-(2-ethoxyphenyl)piperazin-1-yl]-6,7-dimethoxyquinazoline

$$$$
