
     RDKit          3D

 35 37  0  0  0  0  0  0  0  0999 V2000
   -2.3419   -1.4259   -0.5609 C   0  0  0  0  0  0  0  0  0  0  0  0
   -1.4076   -0.7841    0.4612 C   0  0  0  0  0  0  0  0  0  0  0  0
   -2.0030    0.5615    0.7815 C   0  0  0  0  0  0  0  0  0  0  0  0
   -1.4370    1.7191    0.6064 N   0  0  0  0  0  0  0  0  0  0  0  0
   -2.3126    2.7897    1.0293 C   0  0  0  0  0  0  0  0  0  0  0  0
   -3.3680    2.1065    1.8445 C   0  0  0  0  0  0  0  0  0  0  0  0
   -3.3081    0.7410    1.3365 N   0  0  0  0  0  0  0  0  0  0  0  0
   -0.1171   -0.6310   -0.0224 O   0  0  0  0  0  0  0  0  0  0  0  0
    1.0508   -1.1434    0.4574 C   0  0  0  0  0  0  0  0  0  0  0  0
    1.1151   -1.9471    1.5770 C   0  0  0  0  0  0  0  0  0  0  0  0
    2.3044   -2.4594    2.0522 C   0  0  0  0  0  0  0  0  0  0  0  0
    3.4670   -2.1560    1.3831 C   0  0  0  0  0  0  0  0  0  0  0  0
    3.3928   -1.3541    0.2681 C   0  0  0  0  0  0  0  0  0  0  0  0
    2.2117   -0.8321   -0.2225 C   0  0  0  0  0  0  0  0  0  0  0  0
    2.1996   -0.0080   -1.3817 C   0  0  0  0  0  0  0  0  0  0  0  0
    1.3170    0.6608   -2.1417 C   0  0  0  0  0  0  0  0  0  0  0  0
    1.6802    1.3667   -3.2123 C   0  0  0  0  0  0  0  0  0  0  0  0
    3.0412    1.4009   -3.5428 C   0  0  0  0  0  0  0  0  0  0  0  0
    3.8385    0.3912   -2.2845 S   0  0  0  0  0  0  0  0  0  0  0  0
   -2.3480   -2.5304   -0.4606 H   0  0  0  0  0  0  0  0  0  0  0  0
   -3.3567   -1.0671   -0.3672 H   0  0  0  0  0  0  0  0  0  0  0  0
   -2.0283   -1.0646   -1.5499 H   0  0  0  0  0  0  0  0  0  0  0  0
   -1.4877   -1.4148    1.3675 H   0  0  0  0  0  0  0  0  0  0  0  0
   -2.8353    3.2689    0.1520 H   0  0  0  0  0  0  0  0  0  0  0  0
   -1.7940    3.5970    1.5618 H   0  0  0  0  0  0  0  0  0  0  0  0
   -4.3657    2.5616    1.7189 H   0  0  0  0  0  0  0  0  0  0  0  0
   -3.1124    2.1395    2.9306 H   0  0  0  0  0  0  0  0  0  0  0  0
   -4.0687    0.0119    1.3636 H   0  0  0  0  0  0  0  0  0  0  0  0
    0.2271   -2.1962    2.1126 H   0  0  0  0  0  0  0  0  0  0  0  0
    2.3075   -3.0851    2.9336 H   0  0  0  0  0  0  0  0  0  0  0  0
    4.4244   -2.5482    1.7372 H   0  0  0  0  0  0  0  0  0  0  0  0
    4.3569   -1.1478   -0.2229 H   0  0  0  0  0  0  0  0  0  0  0  0
    0.2174    0.6213   -1.8579 H   0  0  0  0  0  0  0  0  0  0  0  0
    0.9844    1.9315   -3.8643 H   0  0  0  0  0  0  0  0  0  0  0  0
    3.5561    1.9261   -4.3902 H   0  0  0  0  0  0  0  0  0  0  0  0
  1  2  1  0
  2  3  1  0
  3  4  2  0
  4  5  1  0
  5  6  1  0
  6  7  1  0
  2  8  1  0
  8  9  1  0
  9 10  2  0
 10 11  1  0
 11 12  2  0
 12 13  1  0
 13 14  2  0
 14 15  1  0
 15 16  2  0
 16 17  1  0
 17 18  2  0
 18 19  1  0
  7  3  1  0
 14  9  1  0
 19 15  1  0
  1 20  1  0
  1 21  1  0
  1 22  1  0
  2 23  1  0
  5 24  1  0
  5 25  1  0
  6 26  1  0
  6 27  1  0
  7 28  1  0
 10 29  1  0
 11 30  1  0
 12 31  1  0
 13 32  1  0
 16 33  1  0
 17 34  1  0
 18 35  1  0
M  END
>  <Ligand ID>  (1) 
LIG0003516

>  <Ligand>  (1) 
CHEMBL223829

>  <SMILES>  (1) 
CC(C1=NCCN1)Oc1ccccc1c1cccs1

>  <CID>  (1) 
11360447.0

>  <ChEMBL ID>  (1) 
nan

>  <InChiKey>  (1) 
LJLYHROZJUTILK-UHFFFAOYSA-N

>  <InChi>  (1) 
InChI=1S/C15H16N2OS/c1-11(15-16-8-9-17-15)18-13-6-3-2-5-12(13)14-7-4-10-19-14/h2-7,10-11H,8-9H2,1H3,(H,16,17)

>  <IUPAC Name>  (1) 
2-[1-(2-thiophen-2-ylphenoxy)ethyl]-4,5-dihydro-1H-imidazole

$$$$
