
     RDKit          3D

 45 48  0  0  0  0  0  0  0  0999 V2000
   -6.9862    2.3005   -0.7585 O   0  0  0  0  0  0  0  0  0  0  0  0
   -6.4498    1.0220   -0.6926 C   0  0  0  0  0  0  0  0  0  0  0  0
   -5.8517    0.5974   -1.7109 O   0  0  0  0  0  0  0  0  0  0  0  0
   -6.6197    0.2612    0.5586 C   0  0  0  0  0  0  0  0  0  0  0  0
   -6.0021   -1.0954    0.5108 C   0  0  0  0  0  0  0  0  0  0  0  0
   -4.5425   -0.9426    0.2581 C   0  0  0  0  0  0  0  0  0  0  0  0
   -3.9422    0.2131    0.1087 O   0  0  0  0  0  0  0  0  0  0  0  0
   -2.6700    0.0688   -0.1001 C   0  0  0  0  0  0  0  0  0  0  0  0
   -2.3590   -1.2750   -0.0967 C   0  0  0  0  0  0  0  0  0  0  0  0
   -3.5709   -1.9165    0.1346 C   0  0  0  0  0  0  0  0  0  0  0  0
   -1.0620   -1.7149   -0.2973 C   0  0  0  0  0  0  0  0  0  0  0  0
   -0.0789   -0.7750   -0.5025 C   0  0  0  0  0  0  0  0  0  0  0  0
   -0.3676    0.5923   -0.5106 C   0  0  0  0  0  0  0  0  0  0  0  0
   -1.6701    0.9993   -0.3076 C   0  0  0  0  0  0  0  0  0  0  0  0
    1.3073   -1.2350   -0.7175 C   0  0  0  0  0  0  0  0  0  0  0  0
    1.5825   -2.4180   -1.3354 C   0  0  0  0  0  0  0  0  0  0  0  0
    2.8919   -2.8125   -1.5186 C   0  0  0  0  0  0  0  0  0  0  0  0
    3.9169   -2.0055   -1.0744 C   0  0  0  0  0  0  0  0  0  0  0  0
    3.6784   -0.7881   -0.4377 C   0  0  0  0  0  0  0  0  0  0  0  0
    2.3643   -0.4343   -0.2760 C   0  0  0  0  0  0  0  0  0  0  0  0
    4.7681   -0.0626   -0.0354 O   0  0  0  0  0  0  0  0  0  0  0  0
    4.6526    1.1574    0.6057 C   0  0  0  0  0  0  0  0  0  0  0  0
    5.5842    1.1912    1.8296 C   0  0  0  0  0  0  0  0  0  0  0  0
    5.8089    2.6685    1.4862 C   0  0  0  0  0  0  0  0  0  0  0  0
    5.5072    2.2812    0.0536 C   0  0  0  0  0  0  0  0  0  0  0  0
   -6.5275    3.0632   -1.2773 H   0  0  0  0  0  0  0  0  0  0  0  0
   -7.7237    0.1014    0.7082 H   0  0  0  0  0  0  0  0  0  0  0  0
   -6.2225    0.8508    1.4240 H   0  0  0  0  0  0  0  0  0  0  0  0
   -6.5065   -1.6719   -0.3026 H   0  0  0  0  0  0  0  0  0  0  0  0
   -6.1920   -1.6406    1.4359 H   0  0  0  0  0  0  0  0  0  0  0  0
   -3.7336   -2.9835    0.2062 H   0  0  0  0  0  0  0  0  0  0  0  0
   -0.8761   -2.7659   -0.2850 H   0  0  0  0  0  0  0  0  0  0  0  0
    0.4260    1.3313   -0.6752 H   0  0  0  0  0  0  0  0  0  0  0  0
   -1.9475    2.0455   -0.3043 H   0  0  0  0  0  0  0  0  0  0  0  0
    0.7859   -3.0614   -1.6892 H   0  0  0  0  0  0  0  0  0  0  0  0
    3.1467   -3.7320   -1.9980 H   0  0  0  0  0  0  0  0  0  0  0  0
    4.9519   -2.3410   -1.2319 H   0  0  0  0  0  0  0  0  0  0  0  0
    2.0989    0.4881    0.2048 H   0  0  0  0  0  0  0  0  0  0  0  0
    3.6534    1.5722    0.8182 H   0  0  0  0  0  0  0  0  0  0  0  0
    5.0895    1.0087    2.7920 H   0  0  0  0  0  0  0  0  0  0  0  0
    6.4897    0.5924    1.6292 H   0  0  0  0  0  0  0  0  0  0  0  0
    5.0367    3.2628    1.9854 H   0  0  0  0  0  0  0  0  0  0  0  0
    6.8533    2.9952    1.6658 H   0  0  0  0  0  0  0  0  0  0  0  0
    6.4054    1.9734   -0.5033 H   0  0  0  0  0  0  0  0  0  0  0  0
    4.9026    3.0338   -0.5218 H   0  0  0  0  0  0  0  0  0  0  0  0
  1  2  1  0
  2  3  2  0
  2  4  1  0
  4  5  1  0
  5  6  1  0
  6  7  1  0
  7  8  1  0
  8  9  2  0
  9 10  1  0
  9 11  1  0
 11 12  2  0
 12 13  1  0
 13 14  2  0
 12 15  1  0
 15 16  2  0
 16 17  1  0
 17 18  2  0
 18 19  1  0
 19 20  2  0
 19 21  1  0
 21 22  1  0
 22 23  1  0
 23 24  1  0
 24 25  1  0
 10  6  2  0
 20 15  1  0
 25 22  1  0
 14  8  1  0
  1 26  1  0
  4 27  1  0
  4 28  1  0
  5 29  1  0
  5 30  1  0
 10 31  1  0
 11 32  1  0
 13 33  1  0
 14 34  1  0
 16 35  1  0
 17 36  1  0
 18 37  1  0
 20 38  1  0
 22 39  1  0
 23 40  1  0
 23 41  1  0
 24 42  1  0
 24 43  1  0
 25 44  1  0
 25 45  1  0
M  END
>  <Ligand ID>  (1) 
LIG0002935

>  <Ligand>  (1) 
CHEMBL3968537

>  <SMILES>  (1) 
OC(=O)CCc1oc2c(c1)cc(cc2)c1cccc(c1)OC1CCC1

>  <CID>  (1) 
134151115.0

>  <ChEMBL ID>  (1) 
nan

>  <InChiKey>  (1) 
AIGFQVBWSVEVLF-UHFFFAOYSA-N

>  <InChi>  (1) 
InChI=1S/C21H20O4/c22-21(23)10-8-19-13-16-11-15(7-9-20(16)25-19)14-3-1-6-18(12-14)24-17-4-2-5-17/h1,3,6-7,9,11-13,17H,2,4-5,8,10H2,(H,22,23)

>  <IUPAC Name>  (1) 
3-[5-(3-cyclobutyloxyphenyl)-1-benzofuran-2-yl]propanoic acid

$$$$
