
     RDKit          3D

 41 44  0  0  0  0  0  0  0  0999 V2000
    2.6410   -2.7220   -2.3038 F   0  0  0  0  0  0  0  0  0  0  0  0
    3.3303   -1.5592   -2.1111 C   0  0  0  0  0  0  0  0  0  0  0  0
    4.6853   -1.4739   -2.3392 C   0  0  0  0  0  0  0  0  0  0  0  0
    5.3292   -2.5895   -2.7648 F   0  0  0  0  0  0  0  0  0  0  0  0
    5.3692   -0.2960   -2.1428 C   0  0  0  0  0  0  0  0  0  0  0  0
    4.6851    0.8353   -1.7045 C   0  0  0  0  0  0  0  0  0  0  0  0
    3.3083    0.7835   -1.4626 C   0  0  0  0  0  0  0  0  0  0  0  0
    2.6794   -0.4358   -1.6816 C   0  0  0  0  0  0  0  0  0  0  0  0
    1.3414   -0.5327   -1.4750 F   0  0  0  0  0  0  0  0  0  0  0  0
    2.5445    1.9428   -0.9851 C   0  0  0  0  0  0  0  0  0  0  0  0
    2.1985    1.9287    0.7872 S   0  0  0  0  0  0  0  0  0  0  0  0
    1.1204    0.5870    1.2279 C   0  0  0  0  0  0  0  0  0  0  0  0
    1.6021   -0.6453    1.5688 N   0  0  0  0  0  0  0  0  0  0  0  0
    0.5455   -1.3929    1.8451 N   0  0  0  0  0  0  0  0  0  0  0  0
   -0.5816   -0.6698    1.6884 C   0  0  0  0  0  0  0  0  0  0  0  0
   -0.2327    0.5697    1.3030 N   0  0  0  0  0  0  0  0  0  0  0  0
   -1.1283    1.6476    1.0441 C   0  0  0  0  0  0  0  0  0  0  0  0
   -1.6198    1.7417   -0.3471 C   0  0  0  0  0  0  0  0  0  0  0  0
   -2.7563    1.1204   -0.8765 C   0  0  0  0  0  0  0  0  0  0  0  0
   -2.7708    1.5261   -2.2064 C   0  0  0  0  0  0  0  0  0  0  0  0
   -1.6912    2.3446   -2.4333 C   0  0  0  0  0  0  0  0  0  0  0  0
   -1.0558    2.4334   -1.3107 O   0  0  0  0  0  0  0  0  0  0  0  0
   -1.9050   -1.2366    1.9241 C   0  0  0  0  0  0  0  0  0  0  0  0
   -2.5060   -1.9325    0.9017 C   0  0  0  0  0  0  0  0  0  0  0  0
   -3.7510   -2.5136    0.9983 C   0  0  0  0  0  0  0  0  0  0  0  0
   -4.4179   -2.3721    2.2151 C   0  0  0  0  0  0  0  0  0  0  0  0
   -3.7913   -1.6605    3.2457 C   0  0  0  0  0  0  0  0  0  0  0  0
   -2.5669   -1.1197    3.0715 N   0  0  0  0  0  0  0  0  0  0  0  0
    6.4494   -0.2357   -2.3276 H   0  0  0  0  0  0  0  0  0  0  0  0
    5.1794    1.7825   -1.5362 H   0  0  0  0  0  0  0  0  0  0  0  0
    1.6226    1.9910   -1.6018 H   0  0  0  0  0  0  0  0  0  0  0  0
    3.1050    2.8936   -1.2249 H   0  0  0  0  0  0  0  0  0  0  0  0
   -0.6739    2.6484    1.3171 H   0  0  0  0  0  0  0  0  0  0  0  0
   -1.9694    1.5556    1.7934 H   0  0  0  0  0  0  0  0  0  0  0  0
   -3.4558    0.4814   -0.3789 H   0  0  0  0  0  0  0  0  0  0  0  0
   -3.5567    1.1948   -2.8848 H   0  0  0  0  0  0  0  0  0  0  0  0
   -1.4404    2.8146   -3.3799 H   0  0  0  0  0  0  0  0  0  0  0  0
   -2.0057   -2.0605   -0.0700 H   0  0  0  0  0  0  0  0  0  0  0  0
   -4.1961   -3.0541    0.1773 H   0  0  0  0  0  0  0  0  0  0  0  0
   -5.4078   -2.8020    2.3743 H   0  0  0  0  0  0  0  0  0  0  0  0
   -4.2560   -1.5185    4.2054 H   0  0  0  0  0  0  0  0  0  0  0  0
  1  2  1  0
  2  3  2  0
  3  4  1  0
  3  5  1  0
  5  6  2  0
  6  7  1  0
  7  8  2  0
  8  9  1  0
  7 10  1  0
 10 11  1  0
 11 12  1  0
 12 13  2  0
 13 14  1  0
 14 15  2  0
 15 16  1  0
 16 17  1  0
 17 18  1  0
 18 19  2  0
 19 20  1  0
 20 21  2  0
 21 22  1  0
 15 23  1  0
 23 24  2  0
 24 25  1  0
 25 26  2  0
 26 27  1  0
 27 28  2  0
  8  2  1  0
 16 12  1  0
 22 18  1  0
 28 23  1  0
  5 29  1  0
  6 30  1  0
 10 31  1  0
 10 32  1  0
 17 33  1  0
 17 34  1  0
 19 35  1  0
 20 36  1  0
 21 37  1  0
 24 38  1  0
 25 39  1  0
 26 40  1  0
 27 41  1  0
M  END
>  <Ligand ID>  (1) 
LIG0002760

>  <Ligand>  (1) 
KUC104187N

>  <SMILES>  (1) 
Fc1c(F)ccc(c1F)CSc1nnc(n1Cc1ccco1)c1ccccn1

>  <CID>  (1) 
44620919.0

>  <ChEMBL ID>  (1) 
nan

>  <InChiKey>  (1) 
XRHYCKXUOOZLNR-UHFFFAOYSA-N

>  <InChi>  (1) 
InChI=1S/C19H13F3N4OS/c20-14-7-6-12(16(21)17(14)22)11-28-19-25-24-18(15-5-1-2-8-23-15)26(19)10-13-4-3-9-27-13/h1-9H,10-11H2

>  <IUPAC Name>  (1) 
2-[4-(furan-2-ylmethyl)-5-[(2,3,4-trifluorophenyl)methylsulfanyl]-1,2,4-triazol-3-yl]pyridine

$$$$
