
     RDKit          3D

 41 41  0  0  0  0  0  0  0  0999 V2000
    5.0442    2.1936   -1.7065 O   0  0  0  0  0  0  0  0  0  0  0  0
    5.7751    2.1949   -0.5389 C   0  0  0  0  0  0  0  0  0  0  0  0
    6.8151    2.8999   -0.4653 O   0  0  0  0  0  0  0  0  0  0  0  0
    5.3951    1.3889    0.6762 C   0  0  0  0  0  0  0  0  0  0  0  0
    4.3322    0.6713    0.5127 O   0  0  0  0  0  0  0  0  0  0  0  0
    3.2669   -0.0477    0.3487 C   0  0  0  0  0  0  0  0  0  0  0  0
    2.4113   -0.2863    1.4453 C   0  0  0  0  0  0  0  0  0  0  0  0
    2.7555    0.2660    2.6536 F   0  0  0  0  0  0  0  0  0  0  0  0
    1.2704   -1.0418    1.3256 C   0  0  0  0  0  0  0  0  0  0  0  0
    0.9870   -1.5644    0.0845 C   0  0  0  0  0  0  0  0  0  0  0  0
    1.7713   -1.3761   -1.0304 C   0  0  0  0  0  0  0  0  0  0  0  0
    2.9132   -0.6092   -0.8714 C   0  0  0  0  0  0  0  0  0  0  0  0
    3.6724   -0.4496   -1.9925 F   0  0  0  0  0  0  0  0  0  0  0  0
   -0.2402   -2.3833   -0.0781 C   0  0  0  0  0  0  0  0  0  0  0  0
   -1.7486   -1.4439   -0.3098 P   0  0  0  0  0  0  0  0  0  0  0  0
   -2.9247   -2.2774    0.2169 O   0  0  0  0  0  0  0  0  0  0  0  0
   -1.8172    0.1287    0.5121 C   0  0  0  0  0  0  0  0  0  0  0  0
   -3.1430    0.4209    1.1611 C   0  0  0  0  0  0  0  0  0  0  0  0
   -4.3128    0.4605    0.2455 C   0  0  2  0  0  0  0  0  0  0  0  0
   -4.2414    1.4838   -0.8242 C   0  0  0  0  0  0  0  0  0  0  0  0
   -5.1977    2.3201   -0.8894 O   0  0  0  0  0  0  0  0  0  0  0  0
   -3.2366    1.6043   -1.7446 O   0  0  0  0  0  0  0  0  0  0  0  0
   -5.5494    0.7043    0.9716 N   0  0  0  0  0  0  0  0  0  0  0  0
   -2.0398   -1.2314   -1.9626 O   0  0  0  0  0  0  0  0  0  0  0  0
   -0.4243   -3.2995    0.9617 O   0  0  0  0  0  0  0  0  0  0  0  0
    5.0506    2.9688   -2.3467 H   0  0  0  0  0  0  0  0  0  0  0  0
    6.2938    0.7371    0.9495 H   0  0  0  0  0  0  0  0  0  0  0  0
    5.3365    2.1060    1.5569 H   0  0  0  0  0  0  0  0  0  0  0  0
    0.6468   -1.1962    2.1970 H   0  0  0  0  0  0  0  0  0  0  0  0
    1.5187   -1.8030   -1.9957 H   0  0  0  0  0  0  0  0  0  0  0  0
   -0.1561   -3.0493   -0.9899 H   0  0  0  0  0  0  0  0  0  0  0  0
   -1.6140    0.9689   -0.2039 H   0  0  0  0  0  0  0  0  0  0  0  0
   -1.0515    0.2513    1.3173 H   0  0  0  0  0  0  0  0  0  0  0  0
   -3.0948    1.4138    1.6724 H   0  0  0  0  0  0  0  0  0  0  0  0
   -3.3812   -0.2979    1.9741 H   0  0  0  0  0  0  0  0  0  0  0  0
   -4.4869   -0.5013   -0.2957 H   0  0  0  0  0  0  0  0  0  0  0  0
   -3.1070    2.4499   -2.3085 H   0  0  0  0  0  0  0  0  0  0  0  0
   -6.4016    0.4285    0.4355 H   0  0  0  0  0  0  0  0  0  0  0  0
   -5.5136    0.3876    1.9488 H   0  0  0  0  0  0  0  0  0  0  0  0
   -2.0232   -2.1571   -2.3543 H   0  0  0  0  0  0  0  0  0  0  0  0
    0.4494   -3.4334    1.4125 H   0  0  0  0  0  0  0  0  0  0  0  0
  1  2  1  0
  2  3  2  0
  2  4  1  0
  4  5  1  0
  5  6  1  0
  6  7  2  0
  7  8  1  0
  7  9  1  0
  9 10  2  0
 10 11  1  0
 11 12  2  0
 12 13  1  0
 10 14  1  0
 14 15  1  0
 15 16  2  0
 15 17  1  0
 17 18  1  0
 18 19  1  0
 19 20  1  0
 20 21  2  0
 20 22  1  0
 19 23  1  0
 15 24  1  0
 14 25  1  0
 12  6  1  0
  1 26  1  0
  4 27  1  0
  4 28  1  0
  9 29  1  0
 11 30  1  0
 14 31  1  0
 17 32  1  0
 17 33  1  0
 18 34  1  0
 18 35  1  0
 19 36  1  6
 22 37  1  0
 23 38  1  0
 23 39  1  0
 24 40  1  0
 25 41  1  0
M  END
>  <Ligand ID>  (1) 
LIG0001211

>  <Ligand>  (1) 
US9212196, Derivative 28

>  <SMILES>  (1) 
OC(=O)COc1c(F)cc(cc1F)C(P(=O)(CC[C@H](C(=O)O)N)O)O

>  <CID>  (1) 
122197958.0

>  <ChEMBL ID>  (1) 
nan

>  <InChiKey>  (1) 
ILIGGRZKVRBOPK-CGCSKFHYSA-N

>  <InChi>  (1) 
InChI=1S/C13H16F2NO8P/c14-7-3-6(4-8(15)11(7)24-5-10(17)18)13(21)25(22,23)2-1-9(16)12(19)20/h3-4,9,13,21H,1-2,5,16H2,(H,17,18)(H,19,20)(H,22,23)/t9-,13?/m1/s1

>  <IUPAC Name>  (1) 
(2R)-2-amino-4-[[[4-(carboxymethoxy)-3,5-difluorophenyl]-hydroxymethyl]-hydroxyphosphoryl]butanoic acid

$$$$
