
     RDKit          3D

 51 53  0  0  0  0  0  0  0  0999 V2000
   -0.3711    2.1731   -0.2341 C   0  0  0  0  0  0  0  0  0  0  0  0
   -0.9924    1.0782    0.5932 C   0  0  0  0  0  0  0  0  0  0  0  0
   -0.4935   -0.2974    0.3215 C   0  0  0  0  0  0  0  0  0  0  0  0
    0.9471   -0.5063    0.5534 C   0  0  0  0  0  0  0  0  0  0  0  0
    1.4647   -1.0724    1.7268 C   0  0  0  0  0  0  0  0  0  0  0  0
    2.8050   -1.1050    1.6538 N   0  0  0  0  0  0  0  0  0  0  0  0
    3.2103   -0.5843    0.4787 C   0  0  0  0  0  0  0  0  0  0  0  0
    2.0518   -0.2146   -0.2009 C   0  0  0  0  0  0  0  0  0  0  0  0
    2.1840    0.3443   -1.4491 C   0  0  0  0  0  0  0  0  0  0  0  0
    3.3994    0.5583   -2.0595 C   0  0  0  0  0  0  0  0  0  0  0  0
    4.5270    0.1867   -1.3694 C   0  0  0  0  0  0  0  0  0  0  0  0
    4.4617   -0.3801   -0.1137 C   0  0  0  0  0  0  0  0  0  0  0  0
    5.6123   -0.7570    0.5852 O   0  0  0  0  0  0  0  0  0  0  0  0
    6.8643   -0.5368   -0.0422 C   0  0  0  0  0  0  0  0  0  0  0  0
    8.0043   -0.9764    0.7994 C   0  0  0  0  0  0  0  0  0  0  0  0
    9.1722   -0.8473    0.3789 O   0  0  0  0  0  0  0  0  0  0  0  0
    7.8109   -1.5354    2.0595 O   0  0  0  0  0  0  0  0  0  0  0  0
   -2.4234    1.1667    0.4457 N   0  0  0  0  0  0  0  0  0  0  0  0
   -2.7967    1.0170   -0.9172 C   0  0  0  0  0  0  0  0  0  0  0  0
   -4.3075    1.0892   -1.1200 C   0  0  1  0  0  0  0  0  0  0  0  0
   -4.9965   -0.0314   -0.4473 C   0  0  0  0  0  0  0  0  0  0  0  0
   -5.4035   -1.1487   -1.1435 C   0  0  0  0  0  0  0  0  0  0  0  0
   -6.0520   -2.1827   -0.4623 C   0  0  0  0  0  0  0  0  0  0  0  0
   -6.2772   -2.0684    0.9114 C   0  0  0  0  0  0  0  0  0  0  0  0
   -5.8774   -0.9644    1.6119 C   0  0  0  0  0  0  0  0  0  0  0  0
   -5.2396    0.0394    0.9099 C   0  0  0  0  0  0  0  0  0  0  0  0
   -6.1511   -0.7982    3.3492 Cl  0  0  0  0  0  0  0  0  0  0  0  0
   -4.8443    2.2987   -0.7020 O   0  0  0  0  0  0  0  0  0  0  0  0
    0.6962    2.3438    0.0256 H   0  0  0  0  0  0  0  0  0  0  0  0
   -0.8589    3.1625   -0.0365 H   0  0  0  0  0  0  0  0  0  0  0  0
   -0.4422    2.0329   -1.3201 H   0  0  0  0  0  0  0  0  0  0  0  0
   -0.7515    1.2854    1.6916 H   0  0  0  0  0  0  0  0  0  0  0  0
   -0.7116   -0.6558   -0.7075 H   0  0  0  0  0  0  0  0  0  0  0  0
   -1.0838   -0.9904    0.9827 H   0  0  0  0  0  0  0  0  0  0  0  0
    0.8785   -1.4335    2.5733 H   0  0  0  0  0  0  0  0  0  0  0  0
    3.4524   -1.4800    2.3996 H   0  0  0  0  0  0  0  0  0  0  0  0
    1.3055    0.6297   -2.0016 H   0  0  0  0  0  0  0  0  0  0  0  0
    3.4440    1.0008   -3.0398 H   0  0  0  0  0  0  0  0  0  0  0  0
    5.4911    0.3539   -1.8473 H   0  0  0  0  0  0  0  0  0  0  0  0
    6.8858   -1.0852   -1.0163 H   0  0  0  0  0  0  0  0  0  0  0  0
    6.9721    0.5465   -0.3183 H   0  0  0  0  0  0  0  0  0  0  0  0
    8.4583   -2.2598    2.3742 H   0  0  0  0  0  0  0  0  0  0  0  0
   -2.7199    2.0870    0.8428 H   0  0  0  0  0  0  0  0  0  0  0  0
   -2.5059    0.0253   -1.2807 H   0  0  0  0  0  0  0  0  0  0  0  0
   -2.3963    1.8291   -1.5899 H   0  0  0  0  0  0  0  0  0  0  0  0
   -4.4555    1.0680   -2.2266 H   0  0  0  0  0  0  0  0  0  0  0  0
   -5.2213   -1.2280   -2.2234 H   0  0  0  0  0  0  0  0  0  0  0  0
   -6.3775   -3.0661   -0.9951 H   0  0  0  0  0  0  0  0  0  0  0  0
   -6.7826   -2.8630    1.4694 H   0  0  0  0  0  0  0  0  0  0  0  0
   -4.9301    0.9100    1.4915 H   0  0  0  0  0  0  0  0  0  0  0  0
   -4.6356    3.0103   -1.3647 H   0  0  0  0  0  0  0  0  0  0  0  0
  1  2  1  0
  2  3  1  0
  3  4  1  0
  4  5  2  0
  5  6  1  0
  6  7  1  0
  7  8  2  0
  8  9  1  0
  9 10  2  0
 10 11  1  0
 11 12  2  0
 12 13  1  0
 13 14  1  0
 14 15  1  0
 15 16  2  0
 15 17  1  0
  2 18  1  0
 18 19  1  0
 19 20  1  0
 20 21  1  0
 21 22  2  0
 22 23  1  0
 23 24  2  0
 24 25  1  0
 25 26  2  0
 25 27  1  0
 20 28  1  0
  8  4  1  0
 26 21  1  0
 12  7  1  0
  1 29  1  0
  1 30  1  0
  1 31  1  0
  2 32  1  0
  3 33  1  0
  3 34  1  0
  5 35  1  0
  6 36  1  0
  9 37  1  0
 10 38  1  0
 11 39  1  0
 14 40  1  0
 14 41  1  0
 17 42  1  0
 18 43  1  0
 19 44  1  0
 19 45  1  0
 20 46  1  6
 22 47  1  0
 23 48  1  0
 24 49  1  0
 26 50  1  0
 28 51  1  0
M  END
>  <Ligand ID>  (1) 
LIG0003528

>  <Ligand>  (1) 
CHEMBL282190

>  <SMILES>  (1) 
CC(Cc1c[nH]c2c1cccc2OCC(=O)O)NC[C@@H](c1cccc(c1)Cl)O

>  <CID>  (1) 
6916441.0

>  <ChEMBL ID>  (1) 
nan

>  <InChiKey>  (1) 
FHEYFIGWYQJVDR-UWBLVGDVSA-N

>  <InChi>  (1) 
InChI=1S/C21H23ClN2O4/c1-13(23-11-18(25)14-4-2-5-16(22)9-14)8-15-10-24-21-17(15)6-3-7-19(21)28-12-20(26)27/h2-7,9-10,13,18,23-25H,8,11-12H2,1H3,(H,26,27)/t13?,18-/m0/s1

>  <IUPAC Name>  (1) 
2-[[3-[2-[[(2R)-2-(3-chlorophenyl)-2-hydroxyethyl]amino]propyl]-1H-indol-7-yl]oxy]acetic acid

$$$$
