
     RDKit          3D

 94 98  0  0  0  0  0  0  0  0999 V2000
    4.2825   -0.8757   -1.4166 O   0  0  0  0  0  0  0  0  0  0  0  0
    3.7051   -0.3830   -0.4438 C   0  0  0  0  0  0  0  0  0  0  0  0
    4.1103   -0.9494    0.9116 C   0  0  2  0  0  0  0  0  0  0  0  0
    3.5326   -0.2452    1.9851 N   0  0  0  0  0  0  0  0  0  0  0  0
    4.3727    0.5219    2.8349 C   0  0  0  0  0  0  0  0  0  0  0  0
    5.6139   -0.2254    3.2289 C   0  0  0  0  0  0  0  0  0  0  0  0
    6.1501   -1.0375    2.2530 C   0  0  0  0  0  0  0  0  0  0  0  0
    5.5756   -1.1757    0.8966 C   0  0  0  0  0  0  0  0  0  0  0  0
    7.2893   -1.7535    2.5543 C   0  0  0  0  0  0  0  0  0  0  0  0
    7.9056   -1.6790    3.8031 C   0  0  0  0  0  0  0  0  0  0  0  0
    7.3157   -0.8468    4.7323 C   0  0  0  0  0  0  0  0  0  0  0  0
    6.1789   -0.1094    4.4860 C   0  0  0  0  0  0  0  0  0  0  0  0
    2.7143    0.6545   -0.5164 N   0  0  0  0  0  0  0  0  0  0  0  0
    2.4224    1.1434   -1.8708 C   0  0  1  0  0  0  0  0  0  0  0  0
    1.1383    0.7803   -2.4210 C   0  0  0  0  0  0  0  0  0  0  0  0
    0.9438    1.1331   -3.6587 O   0  0  0  0  0  0  0  0  0  0  0  0
    0.0599    0.1027   -1.8282 N   0  0  0  0  0  0  0  0  0  0  0  0
    0.0010   -0.3660   -0.4608 C   0  0  0  0  0  0  0  0  0  0  0  0
   -1.1446   -1.3422   -0.3440 C   0  0  0  0  0  0  0  0  0  0  0  0
   -2.4720   -0.6747   -0.5407 C   0  0  0  0  0  0  0  0  0  0  0  0
   -2.2939    0.2503   -1.7639 C   0  0  0  0  0  0  0  0  0  0  0  0
   -1.1435   -0.1886   -2.6370 C   0  0  0  0  0  0  0  0  0  0  0  0
   -2.9332    0.2174    0.5374 C   0  0  0  0  0  0  0  0  0  0  0  0
   -3.1537   -0.2043    1.8457 N   0  0  0  0  0  0  0  0  0  0  0  0
   -1.9001    0.0439    2.9953 S   0  0  0  0  0  0  0  0  0  0  0  0
   -0.6129   -0.6245    2.6878 O   0  0  0  0  0  0  0  0  0  0  0  0
   -2.4220   -0.3923    4.3660 O   0  0  0  0  0  0  0  0  0  0  0  0
   -1.5429    1.7954    3.1798 C   0  0  0  0  0  0  0  0  0  0  0  0
   -4.4135    0.2521    2.4551 C   0  0  0  0  0  0  0  0  0  0  0  0
   -5.3963   -0.8859    2.5137 C   0  0  0  0  0  0  0  0  0  0  0  0
   -5.0318    1.4187    1.7663 C   0  0  0  0  0  0  0  0  0  0  0  0
   -3.4440   -1.7181   -1.0355 C   0  0  0  0  0  0  0  0  0  0  0  0
   -4.8121   -1.2207   -1.3607 C   0  0  0  0  0  0  0  0  0  0  0  0
   -5.8346   -2.3413   -1.3794 C   0  0  0  0  0  0  0  0  0  0  0  0
   -5.2643   -3.6635   -1.8065 C   0  0  0  0  0  0  0  0  0  0  0  0
   -4.0415   -4.0718   -1.0285 C   0  0  0  0  0  0  0  0  0  0  0  0
   -3.5734   -2.9249   -0.1368 C   0  0  0  0  0  0  0  0  0  0  0  0
    2.7910    2.5990   -1.9202 C   0  0  0  0  0  0  0  0  0  0  0  0
    2.5414    3.2269   -3.2281 C   0  0  0  0  0  0  0  0  0  0  0  0
    1.3093    3.8198   -3.4323 C   0  0  0  0  0  0  0  0  0  0  0  0
    1.0862    4.4267   -4.6624 C   0  0  0  0  0  0  0  0  0  0  0  0
    2.0401    4.4516   -5.6615 C   0  0  0  0  0  0  0  0  0  0  0  0
    3.2569    3.8565   -5.4384 C   0  0  0  0  0  0  0  0  0  0  0  0
    3.5042    3.2435   -4.2167 C   0  0  0  0  0  0  0  0  0  0  0  0
    1.7251    5.2333   -7.2089 Cl  0  0  0  0  0  0  0  0  0  0  0  0
    3.6256   -1.9811    0.9126 H   0  0  0  0  0  0  0  0  0  0  0  0
    2.7998   -0.7228    2.5365 H   0  0  0  0  0  0  0  0  0  0  0  0
    4.7280    1.4930    2.4036 H   0  0  0  0  0  0  0  0  0  0  0  0
    3.8486    0.7160    3.7926 H   0  0  0  0  0  0  0  0  0  0  0  0
    5.8035   -2.2014    0.5350 H   0  0  0  0  0  0  0  0  0  0  0  0
    6.1116   -0.4155    0.2738 H   0  0  0  0  0  0  0  0  0  0  0  0
    7.7344   -2.4041    1.8028 H   0  0  0  0  0  0  0  0  0  0  0  0
    8.8058   -2.2538    4.0192 H   0  0  0  0  0  0  0  0  0  0  0  0
    7.7476   -0.7438    5.7274 H   0  0  0  0  0  0  0  0  0  0  0  0
    5.7200    0.5472    5.2261 H   0  0  0  0  0  0  0  0  0  0  0  0
    2.2411    1.0292    0.3316 H   0  0  0  0  0  0  0  0  0  0  0  0
    3.1920    0.6434   -2.5459 H   0  0  0  0  0  0  0  0  0  0  0  0
   -0.1167    0.5025    0.2197 H   0  0  0  0  0  0  0  0  0  0  0  0
    0.9099   -0.9184   -0.1542 H   0  0  0  0  0  0  0  0  0  0  0  0
   -1.0465   -2.0623   -1.2237 H   0  0  0  0  0  0  0  0  0  0  0  0
   -1.0817   -2.0217    0.5238 H   0  0  0  0  0  0  0  0  0  0  0  0
   -1.9774    1.2558   -1.3459 H   0  0  0  0  0  0  0  0  0  0  0  0
   -3.1936    0.3402   -2.3679 H   0  0  0  0  0  0  0  0  0  0  0  0
   -1.1969   -1.2040   -3.0003 H   0  0  0  0  0  0  0  0  0  0  0  0
   -1.1659    0.4710   -3.5305 H   0  0  0  0  0  0  0  0  0  0  0  0
   -2.1644    1.0648    0.5809 H   0  0  0  0  0  0  0  0  0  0  0  0
   -3.8408    0.7812    0.1643 H   0  0  0  0  0  0  0  0  0  0  0  0
   -0.6946    2.0890    2.5277 H   0  0  0  0  0  0  0  0  0  0  0  0
   -2.4414    2.4129    3.0729 H   0  0  0  0  0  0  0  0  0  0  0  0
   -1.1676    1.9272    4.2146 H   0  0  0  0  0  0  0  0  0  0  0  0
   -4.1771    0.6232    3.5040 H   0  0  0  0  0  0  0  0  0  0  0  0
   -4.8851   -1.8499    2.7188 H   0  0  0  0  0  0  0  0  0  0  0  0
   -5.9830   -1.0233    1.5853 H   0  0  0  0  0  0  0  0  0  0  0  0
   -6.1723   -0.6729    3.3011 H   0  0  0  0  0  0  0  0  0  0  0  0
   -5.7310    1.1554    0.9494 H   0  0  0  0  0  0  0  0  0  0  0  0
   -5.7097    1.9285    2.5243 H   0  0  0  0  0  0  0  0  0  0  0  0
   -4.3109    2.2252    1.4988 H   0  0  0  0  0  0  0  0  0  0  0  0
   -2.9952   -2.1011   -1.9913 H   0  0  0  0  0  0  0  0  0  0  0  0
   -5.1404   -0.5111   -0.5945 H   0  0  0  0  0  0  0  0  0  0  0  0
   -4.8698   -0.6871   -2.3582 H   0  0  0  0  0  0  0  0  0  0  0  0
   -6.3084   -2.3878   -0.3918 H   0  0  0  0  0  0  0  0  0  0  0  0
   -6.6119   -2.0575   -2.1404 H   0  0  0  0  0  0  0  0  0  0  0  0
   -6.1083   -4.4003   -1.7246 H   0  0  0  0  0  0  0  0  0  0  0  0
   -5.0419   -3.6387   -2.9119 H   0  0  0  0  0  0  0  0  0  0  0  0
   -3.2433   -4.4630   -1.6857 H   0  0  0  0  0  0  0  0  0  0  0  0
   -4.3598   -4.8900   -0.3175 H   0  0  0  0  0  0  0  0  0  0  0  0
   -2.6449   -3.2496    0.3150 H   0  0  0  0  0  0  0  0  0  0  0  0
   -4.4164   -2.8239    0.5991 H   0  0  0  0  0  0  0  0  0  0  0  0
    3.9061    2.6253   -1.7273 H   0  0  0  0  0  0  0  0  0  0  0  0
    2.3709    3.1776   -1.0716 H   0  0  0  0  0  0  0  0  0  0  0  0
    0.5259    3.8194   -2.6627 H   0  0  0  0  0  0  0  0  0  0  0  0
    0.1360    4.9056   -4.8715 H   0  0  0  0  0  0  0  0  0  0  0  0
    3.9789    3.8947   -6.2392 H   0  0  0  0  0  0  0  0  0  0  0  0
    4.4757    2.7853   -4.0764 H   0  0  0  0  0  0  0  0  0  0  0  0
  1  2  2  0
  2  3  1  0
  3  4  1  0
  4  5  1  0
  5  6  1  0
  6  7  2  0
  7  8  1  0
  7  9  1  0
  9 10  2  0
 10 11  1  0
 11 12  2  0
  2 13  1  0
 13 14  1  0
 14 15  1  0
 15 16  2  0
 15 17  1  0
 17 18  1  0
 18 19  1  0
 19 20  1  0
 20 21  1  0
 21 22  1  0
 20 23  1  0
 23 24  1  0
 24 25  1  0
 25 26  2  0
 25 27  2  0
 25 28  1  0
 24 29  1  0
 29 30  1  0
 29 31  1  0
 20 32  1  0
 32 33  1  0
 33 34  1  0
 34 35  1  0
 35 36  1  0
 36 37  1  0
 14 38  1  0
 38 39  1  0
 39 40  2  0
 40 41  1  0
 41 42  2  0
 42 43  1  0
 43 44  2  0
 42 45  1  0
  8  3  1  0
 22 17  1  0
 37 32  1  0
 44 39  1  0
 12  6  1  0
  3 46  1  6
  4 47  1  0
  5 48  1  0
  5 49  1  0
  8 50  1  0
  8 51  1  0
  9 52  1  0
 10 53  1  0
 11 54  1  0
 12 55  1  0
 13 56  1  0
 14 57  1  6
 18 58  1  0
 18 59  1  0
 19 60  1  0
 19 61  1  0
 21 62  1  0
 21 63  1  0
 22 64  1  0
 22 65  1  0
 23 66  1  0
 23 67  1  0
 28 68  1  0
 28 69  1  0
 28 70  1  0
 29 71  1  0
 30 72  1  0
 30 73  1  0
 30 74  1  0
 31 75  1  0
 31 76  1  0
 31 77  1  0
 32 78  1  0
 33 79  1  0
 33 80  1  0
 34 81  1  0
 34 82  1  0
 35 83  1  0
 35 84  1  0
 36 85  1  0
 36 86  1  0
 37 87  1  0
 37 88  1  0
 38 89  1  0
 38 90  1  0
 40 91  1  0
 41 92  1  0
 43 93  1  0
 44 94  1  0
M  END
>  <Ligand ID>  (1) 
LIG0001519

>  <Ligand>  (1) 
CHEMBL381125

>  <SMILES>  (1) 
O=C([C@@H]1NCc2c(C1)cccc2)N[C@@H](C(=O)N1CCC(CC1)(CN(S(=O)(=O)C)C(C)C)C1CCCCC1)Cc1ccc(cc1)Cl

>  <CID>  (1) 
44408155.0

>  <ChEMBL ID>  (1) 
nan

>  <InChiKey>  (1) 
WRXWCWIFEFKMJL-ROJLCIKYSA-N

>  <InChi>  (1) 
InChI=1S/C35H49ClN4O4S/c1-25(2)40(45(3,43)44)24-35(29-11-5-4-6-12-29)17-19-39(20-18-35)34(42)32(21-26-13-15-30(36)16-14-26)38-33(41)31-22-27-9-7-8-10-28(27)23-37-31/h7-10,13-16,25,29,31-32,37H,4-6,11-12,17-24H2,1-3H3,(H,38,41)/t31-,32-/m1/s1

>  <IUPAC Name>  (1) 
(3R)-N-[(2R)-3-(4-chlorophenyl)-1-[4-cyclohexyl-4-[[methylsulfonyl(propan-2-yl)amino]methyl]piperidin-1-yl]-1-oxopropan-2-yl]-1,2,3,4-tetrahydroisoquinoline-3-carboxamide

$$$$
