
     RDKit          3D

 32 33  0  0  0  0  0  0  0  0999 V2000
    6.5334    1.7861   -1.3739 I   0  0  0  0  0  0  0  0  0  0  0  0
    4.7494    0.9474   -0.6433 C   0  0  0  0  0  0  0  0  0  0  0  0
    3.7505    1.7875   -0.1492 C   0  0  0  0  0  0  0  0  0  0  0  0
    2.5918    1.1889    0.3218 C   0  0  0  0  0  0  0  0  0  0  0  0
    2.4124   -0.1818    0.3119 C   0  0  0  0  0  0  0  0  0  0  0  0
    3.4370   -0.9833   -0.1909 C   0  0  0  0  0  0  0  0  0  0  0  0
    4.6104   -0.4234   -0.6710 C   0  0  0  0  0  0  0  0  0  0  0  0
    1.1472   -0.7902    0.8292 C   0  0  0  0  0  0  0  0  0  0  0  0
    0.2009   -0.9151   -0.1931 O   0  0  0  0  0  0  0  0  0  0  0  0
   -0.9306   -1.4893    0.3981 C   0  0  0  0  0  0  0  0  0  0  0  0
   -2.0470   -1.6922   -0.5711 C   0  0  0  0  0  0  0  0  0  0  0  0
   -2.5309   -0.4158   -1.2131 C   0  0  0  0  0  0  0  0  0  0  0  0
   -3.0313    0.5461   -0.2033 C   0  0  0  0  0  0  0  0  0  0  0  0
   -2.3029    1.5196    0.4595 C   0  0  0  0  0  0  0  0  0  0  0  0
   -3.1469    2.1736    1.2925 N   0  0  0  0  0  0  0  0  0  0  0  0
   -4.3920    1.6321    1.1682 C   0  0  0  0  0  0  0  0  0  0  0  0
   -4.2951    0.6420    0.2503 N   0  0  0  0  0  0  0  0  0  0  0  0
    3.8771    2.8687   -0.1348 H   0  0  0  0  0  0  0  0  0  0  0  0
    1.7828    1.7793    0.7161 H   0  0  0  0  0  0  0  0  0  0  0  0
    3.3482   -2.0518   -0.2211 H   0  0  0  0  0  0  0  0  0  0  0  0
    5.4052   -1.0277   -1.0599 H   0  0  0  0  0  0  0  0  0  0  0  0
    1.4137   -1.7829    1.2296 H   0  0  0  0  0  0  0  0  0  0  0  0
    0.7245   -0.1989    1.6665 H   0  0  0  0  0  0  0  0  0  0  0  0
   -1.2342   -0.9638    1.3072 H   0  0  0  0  0  0  0  0  0  0  0  0
   -0.5952   -2.5165    0.7025 H   0  0  0  0  0  0  0  0  0  0  0  0
   -1.7617   -2.4277   -1.3225 H   0  0  0  0  0  0  0  0  0  0  0  0
   -2.9038   -2.1026    0.0035 H   0  0  0  0  0  0  0  0  0  0  0  0
   -1.7822    0.0468   -1.8770 H   0  0  0  0  0  0  0  0  0  0  0  0
   -3.3904   -0.6993   -1.8565 H   0  0  0  0  0  0  0  0  0  0  0  0
   -1.2570    1.7353    0.3491 H   0  0  0  0  0  0  0  0  0  0  0  0
   -5.2708    1.9533    1.7123 H   0  0  0  0  0  0  0  0  0  0  0  0
   -5.1126    0.0555   -0.0388 H   0  0  0  0  0  0  0  0  0  0  0  0
  1  2  1  0
  2  3  2  0
  3  4  1  0
  4  5  2  0
  5  6  1  0
  6  7  2  0
  5  8  1  0
  8  9  1  0
  9 10  1  0
 10 11  1  0
 11 12  1  0
 12 13  1  0
 13 14  2  0
 14 15  1  0
 15 16  2  0
 16 17  1  0
  7  2  1  0
 17 13  1  0
  3 18  1  0
  4 19  1  0
  6 20  1  0
  7 21  1  0
  8 22  1  0
  8 23  1  0
 10 24  1  0
 10 25  1  0
 11 26  1  0
 11 27  1  0
 12 28  1  0
 12 29  1  0
 14 30  1  0
 16 31  1  0
 17 32  1  0
M  END
>  <Ligand ID>  (1) 
LIG0005959

>  <Ligand>  (1) 
iodoproxyfan

>  <SMILES>  (1) 
Ic1ccc(cc1)COCCCc1cnc[nH]1

>  <CID>  (1) 
132937.0

>  <ChEMBL ID>  (1) 
nan

>  <InChiKey>  (1) 
DCQNAFOCXVCDLB-UHFFFAOYSA-N

>  <InChi>  (1) 
InChI=1S/C13H15IN2O/c14-12-5-3-11(4-6-12)9-17-7-1-2-13-8-15-10-16-13/h3-6,8,10H,1-2,7,9H2,(H,15,16)

>  <IUPAC Name>  (1) 
5-[3-[(4-iodophenyl)methoxy]propyl]-1H-imidazole

$$$$
