
     RDKit          3D

 47 48  0  0  0  0  0  0  0  0999 V2000
    0.2052   -1.7000   -1.8962 O   0  0  0  0  0  0  0  0  0  0  0  0
   -0.5762   -1.0785   -0.9271 C   0  0  2  0  0  0  0  0  0  0  0  0
   -0.5088   -1.8042    0.4006 C   0  0  1  0  0  0  0  0  0  0  0  0
    0.7823   -1.5048    1.1309 C   0  0  0  0  0  0  0  0  0  0  0  0
    1.8270   -1.9351    0.2880 O   0  0  0  0  0  0  0  0  0  0  0  0
    3.3314   -1.6635    0.9739 P   0  0  0  0  0  0  0  0  0  0  0  0
    4.3290   -2.7779    0.6483 O   0  0  0  0  0  0  0  0  0  0  0  0
    4.0621   -0.2370    0.4549 O   0  0  0  0  0  0  0  0  0  0  0  0
    3.8611    0.0682   -1.1736 P   0  0  0  0  0  0  0  0  0  0  0  0
    3.2458   -1.0939   -1.9148 O   0  0  0  0  0  0  0  0  0  0  0  0
    5.3673    0.4211   -1.8497 O   0  0  0  0  0  0  0  0  0  0  0  0
    6.3684    0.9877   -0.6125 P   0  0  0  0  0  0  0  0  0  0  0  0
    5.6147    1.3091    0.6525 O   0  0  0  0  0  0  0  0  0  0  0  0
    7.1235    2.4038   -1.1647 O   0  0  0  0  0  0  0  0  0  0  0  0
    7.5366   -0.1756   -0.2021 O   0  0  0  0  0  0  0  0  0  0  0  0
    2.8447    1.3898   -1.3679 O   0  0  0  0  0  0  0  0  0  0  0  0
    3.1637   -1.5202    2.6707 O   0  0  0  0  0  0  0  0  0  0  0  0
   -1.6408   -1.4420    1.0935 O   0  0  0  0  0  0  0  0  0  0  0  0
   -2.6264   -1.1219    0.1765 C   0  0  2  0  0  0  0  0  0  0  0  0
   -2.0586   -1.2584   -1.2088 C   0  0  2  0  0  0  0  0  0  0  0  0
   -2.2531   -2.5756   -1.6164 O   0  0  0  0  0  0  0  0  0  0  0  0
   -3.1231    0.2138    0.4496 N   0  0  0  0  0  0  0  0  0  0  0  0
   -2.3486    1.2060    0.9242 C   0  0  0  0  0  0  0  0  0  0  0  0
   -2.9212    2.4404    1.1497 C   0  0  0  0  0  0  0  0  0  0  0  0
   -4.2545    2.6925    0.9067 C   0  0  0  0  0  0  0  0  0  0  0  0
   -4.7915    3.8076    1.1056 O   0  0  0  0  0  0  0  0  0  0  0  0
   -4.9903    1.6611    0.4298 N   0  0  0  0  0  0  0  0  0  0  0  0
   -4.4385    0.4538    0.2073 C   0  0  0  0  0  0  0  0  0  0  0  0
   -5.1798   -0.4691   -0.2391 O   0  0  0  0  0  0  0  0  0  0  0  0
   -6.4068    1.9311    0.1723 C   0  0  0  0  0  0  0  0  0  0  0  0
   -0.3814   -1.8463   -2.7057 H   0  0  0  0  0  0  0  0  0  0  0  0
   -0.3072    0.0024   -0.8250 H   0  0  0  0  0  0  0  0  0  0  0  0
   -0.5940   -2.8810    0.1487 H   0  0  0  0  0  0  0  0  0  0  0  0
    0.9315   -0.4282    1.2615 H   0  0  0  0  0  0  0  0  0  0  0  0
    0.8034   -2.0052    2.1157 H   0  0  0  0  0  0  0  0  0  0  0  0
    7.0595    3.1130   -0.4873 H   0  0  0  0  0  0  0  0  0  0  0  0
    7.6712   -0.8482   -0.9366 H   0  0  0  0  0  0  0  0  0  0  0  0
    2.9613    2.0388   -0.6524 H   0  0  0  0  0  0  0  0  0  0  0  0
    2.7468   -0.6269    2.8135 H   0  0  0  0  0  0  0  0  0  0  0  0
   -3.4454   -1.8773    0.3069 H   0  0  0  0  0  0  0  0  0  0  0  0
   -2.4539   -0.5257   -1.9302 H   0  0  0  0  0  0  0  0  0  0  0  0
   -2.6465   -3.1501   -0.9063 H   0  0  0  0  0  0  0  0  0  0  0  0
   -1.3010    1.0206    1.1189 H   0  0  0  0  0  0  0  0  0  0  0  0
   -2.3212    3.2732    1.5361 H   0  0  0  0  0  0  0  0  0  0  0  0
   -6.8527    2.3166    1.1181 H   0  0  0  0  0  0  0  0  0  0  0  0
   -6.9408    1.0273   -0.1459 H   0  0  0  0  0  0  0  0  0  0  0  0
   -6.4747    2.7686   -0.5437 H   0  0  0  0  0  0  0  0  0  0  0  0
  1  2  1  0
  2  3  1  0
  3  4  1  0
  4  5  1  0
  5  6  1  0
  6  7  2  0
  6  8  1  0
  8  9  1  0
  9 10  2  0
  9 11  1  0
 11 12  1  0
 12 13  2  0
 12 14  1  0
 12 15  1  0
  9 16  1  0
  6 17  1  0
  3 18  1  0
 18 19  1  0
 19 20  1  0
 20 21  1  0
 19 22  1  0
 22 23  1  0
 23 24  2  0
 24 25  1  0
 25 26  2  0
 25 27  1  0
 27 28  1  0
 28 29  2  0
 27 30  1  0
 20  2  1  0
 28 22  1  0
  1 31  1  0
  2 32  1  1
  3 33  1  6
  4 34  1  0
  4 35  1  0
 14 36  1  0
 15 37  1  0
 16 38  1  0
 17 39  1  0
 19 40  1  6
 20 41  1  6
 21 42  1  0
 23 43  1  0
 24 44  1  0
 30 45  1  0
 30 46  1  0
 30 47  1  0
M  END
>  <Ligand ID>  (1) 
LIG0004569

>  <Ligand>  (1) 
CHEMBL215783

>  <SMILES>  (1) 
O[C@@H]1[C@@H](COP(=O)(OP(=O)(OP(=O)(O)O)O)O)O[C@H]([C@@H]1O)n1ccc(=O)n(c1=O)C

>  <CID>  (1) 
44417696.0

>  <ChEMBL ID>  (1) 
nan

>  <InChiKey>  (1) 
JHGDTDPUVDFPIL-ZOQUXTDFSA-N

>  <InChi>  (1) 
InChI=1S/C10H17N2O15P3/c1-11-6(13)2-3-12(10(11)16)9-8(15)7(14)5(25-9)4-24-29(20,21)27-30(22,23)26-28(17,18)19/h2-3,5,7-9,14-15H,4H2,1H3,(H,20,21)(H,22,23)(H2,17,18,19)/t5-,7-,8-,9-/m1/s1

>  <IUPAC Name>  (1) 
[[(2R,3S,4R,5R)-3,4-dihydroxy-5-(3-methyl-2,4-dioxopyrimidin-1-yl)oxolan-2-yl]methoxy-hydroxyphosphoryl] phosphono hydrogen phosphate

$$$$
