
     RDKit          3D

110113  0  0  0  0  0  0  0  0999 V2000
   -0.0276    0.1216    0.9929 O   0  0  0  0  0  0  0  0  0  0  0  0
   -0.2181   -0.8248    0.1870 C   0  0  0  0  0  0  0  0  0  0  0  0
   -1.3722   -0.7808   -0.7700 C   0  0  0  0  0  0  0  0  0  0  0  0
   -2.1307    0.4726   -0.6573 N   0  0  0  0  0  0  0  0  0  0  0  0
   -3.1222    0.4809    0.3319 C   0  0  0  0  0  0  0  0  0  0  0  0
   -3.1759   -0.6567    0.9888 O   0  0  0  0  0  0  0  0  0  0  0  0
   -4.0804    1.4626    0.7707 C   0  0  2  0  0  0  0  0  0  0  0  0
   -3.6120    2.8387    1.0897 C   0  0  0  0  0  0  0  0  0  0  0  0
   -4.8370    3.5908    1.5645 C   0  0  0  0  0  0  0  0  0  0  0  0
   -5.0337    3.5801    2.9494 C   0  0  0  0  0  0  0  0  0  0  0  0
   -6.1364    4.2364    3.4513 C   0  0  0  0  0  0  0  0  0  0  0  0
   -7.0255    4.8882    2.6182 C   0  0  0  0  0  0  0  0  0  0  0  0
   -6.7850    4.8678    1.2690 C   0  0  0  0  0  0  0  0  0  0  0  0
   -5.6920    4.2241    0.6977 C   0  0  0  0  0  0  0  0  0  0  0  0
   -4.8008    0.9340    1.9536 N   0  0  0  0  0  0  0  0  0  0  0  0
   -6.1874    0.6619    1.8456 C   0  0  0  0  0  0  0  0  0  0  0  0
   -6.8459    0.8520    0.7785 O   0  0  0  0  0  0  0  0  0  0  0  0
   -6.8575    0.1225    3.0811 C   0  0  0  0  0  0  0  0  0  0  0  0
   -8.2491   -0.0866    2.7560 N   0  0  0  0  0  0  0  0  0  0  0  0
   -8.6513   -0.9766    1.7259 C   0  0  0  0  0  0  0  0  0  0  0  0
   -7.7794   -1.6225    1.0519 O   0  0  0  0  0  0  0  0  0  0  0  0
  -10.0976   -1.1919    1.3927 C   0  0  0  0  0  0  0  0  0  0  0  0
   -1.7710    1.5014   -1.5917 C   0  0  0  0  0  0  0  0  0  0  0  0
   -2.6285    1.3480   -2.8284 C   0  0  0  0  0  0  0  0  0  0  0  0
   -3.8419    1.9649   -2.9474 C   0  0  0  0  0  0  0  0  0  0  0  0
   -4.6097    1.8103   -4.0677 C   0  0  0  0  0  0  0  0  0  0  0  0
   -4.2049    1.0198   -5.1532 C   0  0  0  0  0  0  0  0  0  0  0  0
   -2.9872    0.3990   -5.0384 C   0  0  0  0  0  0  0  0  0  0  0  0
   -2.2130    0.5638   -3.8907 C   0  0  0  0  0  0  0  0  0  0  0  0
    0.5988   -1.9777    0.1026 N   0  0  0  0  0  0  0  0  0  0  0  0
    1.7442   -2.2653    0.9207 C   0  0  2  0  0  0  0  0  0  0  0  0
    3.0006   -1.6090    0.4413 C   0  0  0  0  0  0  0  0  0  0  0  0
    4.0892   -2.1306    0.8873 O   0  0  0  0  0  0  0  0  0  0  0  0
    3.0067   -0.4921   -0.4300 N   0  0  0  0  0  0  0  0  0  0  0  0
    4.2438    0.1058   -0.8644 C   0  0  2  0  0  0  0  0  0  0  0  0
    4.8883    0.8299    0.2985 C   0  0  0  0  0  0  0  0  0  0  0  0
    5.9986    1.4464    0.1323 O   0  0  0  0  0  0  0  0  0  0  0  0
    4.3276    0.8642    1.5884 N   0  0  0  0  0  0  0  0  0  0  0  0
    4.9888    1.5592    2.6997 C   0  0  0  0  0  0  0  0  0  0  0  0
    5.1331    2.9916    2.3871 C   0  0  0  0  0  0  0  0  0  0  0  0
    4.6792    3.4127    1.2691 O   0  0  0  0  0  0  0  0  0  0  0  0
    5.7600    3.8804    3.3038 N   0  0  0  0  0  0  0  0  0  0  0  0
    4.0785    1.0050   -2.0338 C   0  0  0  0  0  0  0  0  0  0  0  0
    5.3746    1.5996   -2.4624 C   0  0  0  0  0  0  0  0  0  0  0  0
    5.8968    2.8527   -2.2137 C   0  0  0  0  0  0  0  0  0  0  0  0
    7.1256    2.9301   -2.7874 N   0  0  0  0  0  0  0  0  0  0  0  0
    7.3965    1.7616   -3.3932 C   0  0  0  0  0  0  0  0  0  0  0  0
    6.3259    0.8986   -3.2142 C   0  0  0  0  0  0  0  0  0  0  0  0
    6.3466   -0.3964   -3.7441 C   0  0  0  0  0  0  0  0  0  0  0  0
    7.4441   -0.8180   -4.4515 C   0  0  0  0  0  0  0  0  0  0  0  0
    8.5353    0.0321   -4.6462 C   0  0  0  0  0  0  0  0  0  0  0  0
    8.4911    1.3062   -4.1134 C   0  0  0  0  0  0  0  0  0  0  0  0
    1.8843   -3.6348    1.4356 C   0  0  0  0  0  0  0  0  0  0  0  0
    1.9946   -4.7573    0.4800 C   0  0  0  0  0  0  0  0  0  0  0  0
    2.1060   -6.0608    1.2816 C   0  0  0  0  0  0  0  0  0  0  0  0
    3.2278   -6.0884    2.1625 N   0  0  0  0  0  0  0  0  0  0  0  0
    4.1947   -6.9133    1.9515 C   0  0  0  0  0  0  0  0  0  0  0  0
    4.0470   -7.7610    0.8114 N   0  0  0  0  0  0  0  0  0  0  0  0
    5.3099   -6.9498    2.8194 N   0  0  0  0  0  0  0  0  0  0  0  0
   -2.0234   -1.6591   -0.4777 H   0  0  0  0  0  0  0  0  0  0  0  0
   -1.0778   -0.9339   -1.7957 H   0  0  0  0  0  0  0  0  0  0  0  0
   -4.8404    1.5870   -0.0594 H   0  0  0  0  0  0  0  0  0  0  0  0
   -2.8477    2.9113    1.8699 H   0  0  0  0  0  0  0  0  0  0  0  0
   -3.3105    3.3875    0.1639 H   0  0  0  0  0  0  0  0  0  0  0  0
   -4.3268    3.0623    3.6128 H   0  0  0  0  0  0  0  0  0  0  0  0
   -6.2660    4.2086    4.5388 H   0  0  0  0  0  0  0  0  0  0  0  0
   -7.8665    5.3809    3.0858 H   0  0  0  0  0  0  0  0  0  0  0  0
   -7.4966    5.3870    0.6185 H   0  0  0  0  0  0  0  0  0  0  0  0
   -5.5033    4.2063   -0.3633 H   0  0  0  0  0  0  0  0  0  0  0  0
   -4.2506    0.7850    2.8248 H   0  0  0  0  0  0  0  0  0  0  0  0
   -6.3907   -0.8447    3.3138 H   0  0  0  0  0  0  0  0  0  0  0  0
   -6.7487    0.8500    3.9064 H   0  0  0  0  0  0  0  0  0  0  0  0
   -8.9761    0.4397    3.2976 H   0  0  0  0  0  0  0  0  0  0  0  0
  -10.5745   -0.2210    1.1826 H   0  0  0  0  0  0  0  0  0  0  0  0
  -10.1889   -1.8745    0.5245 H   0  0  0  0  0  0  0  0  0  0  0  0
  -10.5266   -1.7273    2.2683 H   0  0  0  0  0  0  0  0  0  0  0  0
   -0.7219    1.3431   -1.9814 H   0  0  0  0  0  0  0  0  0  0  0  0
   -1.7952    2.5178   -1.2265 H   0  0  0  0  0  0  0  0  0  0  0  0
   -4.2188    2.5970   -2.1479 H   0  0  0  0  0  0  0  0  0  0  0  0
   -5.5881    2.3124   -4.1685 H   0  0  0  0  0  0  0  0  0  0  0  0
   -4.8287    0.9108   -6.0288 H   0  0  0  0  0  0  0  0  0  0  0  0
   -2.6190   -0.2360   -5.8562 H   0  0  0  0  0  0  0  0  0  0  0  0
   -1.2678    0.0441   -3.8992 H   0  0  0  0  0  0  0  0  0  0  0  0
    0.3730   -2.7203   -0.6327 H   0  0  0  0  0  0  0  0  0  0  0  0
    1.5662   -1.6369    1.8922 H   0  0  0  0  0  0  0  0  0  0  0  0
    2.1059   -0.0871   -0.7669 H   0  0  0  0  0  0  0  0  0  0  0  0
    4.9672   -0.7064   -1.0854 H   0  0  0  0  0  0  0  0  0  0  0  0
    3.4010    0.3834    1.7831 H   0  0  0  0  0  0  0  0  0  0  0  0
    5.9936    1.0705    2.7923 H   0  0  0  0  0  0  0  0  0  0  0  0
    4.4419    1.3789    3.6652 H   0  0  0  0  0  0  0  0  0  0  0  0
    6.8054    3.8397    3.4777 H   0  0  0  0  0  0  0  0  0  0  0  0
    5.2570    4.6112    3.8531 H   0  0  0  0  0  0  0  0  0  0  0  0
    3.6368    0.4470   -2.8695 H   0  0  0  0  0  0  0  0  0  0  0  0
    3.3351    1.8255   -1.7758 H   0  0  0  0  0  0  0  0  0  0  0  0
    5.4077    3.6350   -1.6575 H   0  0  0  0  0  0  0  0  0  0  0  0
    7.7058    3.8023   -2.7176 H   0  0  0  0  0  0  0  0  0  0  0  0
    5.5012   -1.0657   -3.6001 H   0  0  0  0  0  0  0  0  0  0  0  0
    7.4433   -1.8314   -4.8585 H   0  0  0  0  0  0  0  0  0  0  0  0
    9.3666   -0.3602   -5.2115 H   0  0  0  0  0  0  0  0  0  0  0  0
    9.3295    1.9658   -4.2645 H   0  0  0  0  0  0  0  0  0  0  0  0
    0.9598   -3.8381    2.0647 H   0  0  0  0  0  0  0  0  0  0  0  0
    2.7059   -3.6367    2.1842 H   0  0  0  0  0  0  0  0  0  0  0  0
    1.1027   -4.9062   -0.1584 H   0  0  0  0  0  0  0  0  0  0  0  0
    2.8997   -4.6546   -0.1178 H   0  0  0  0  0  0  0  0  0  0  0  0
    1.1652   -6.2320    1.8676 H   0  0  0  0  0  0  0  0  0  0  0  0
    2.1640   -6.9387    0.5996 H   0  0  0  0  0  0  0  0  0  0  0  0
    3.7380   -8.7620    0.9861 H   0  0  0  0  0  0  0  0  0  0  0  0
    4.2229   -7.4584   -0.1675 H   0  0  0  0  0  0  0  0  0  0  0  0
    5.1857   -7.5357    3.6995 H   0  0  0  0  0  0  0  0  0  0  0  0
    6.2098   -6.4460    2.6454 H   0  0  0  0  0  0  0  0  0  0  0  0
  1  2  2  0
  2  3  1  0
  3  4  1  0
  4  5  1  0
  5  6  2  0
  5  7  1  0
  7  8  1  0
  8  9  1  0
  9 10  2  0
 10 11  1  0
 11 12  2  0
 12 13  1  0
 13 14  2  0
  7 15  1  0
 15 16  1  0
 16 17  2  0
 16 18  1  0
 18 19  1  0
 19 20  1  0
 20 21  2  0
 20 22  1  0
  4 23  1  0
 23 24  1  0
 24 25  2  0
 25 26  1  0
 26 27  2  0
 27 28  1  0
 28 29  2  0
  2 30  1  0
 30 31  1  0
 31 32  1  0
 32 33  2  0
 32 34  1  0
 34 35  1  0
 35 36  1  0
 36 37  2  0
 36 38  1  0
 38 39  1  0
 39 40  1  0
 40 41  2  0
 40 42  1  0
 35 43  1  0
 43 44  1  0
 44 45  2  0
 45 46  1  0
 46 47  1  0
 47 48  2  0
 48 49  1  0
 49 50  2  0
 50 51  1  0
 51 52  2  0
 31 53  1  0
 53 54  1  0
 54 55  1  0
 55 56  1  0
 56 57  2  3
 57 58  1  0
 57 59  1  0
 14  9  1  0
 29 24  1  0
 48 44  1  0
 52 47  1  0
  3 60  1  0
  3 61  1  0
  7 62  1  6
  8 63  1  0
  8 64  1  0
 10 65  1  0
 11 66  1  0
 12 67  1  0
 13 68  1  0
 14 69  1  0
 15 70  1  0
 18 71  1  0
 18 72  1  0
 19 73  1  0
 22 74  1  0
 22 75  1  0
 22 76  1  0
 23 77  1  0
 23 78  1  0
 25 79  1  0
 26 80  1  0
 27 81  1  0
 28 82  1  0
 29 83  1  0
 30 84  1  0
 31 85  1  1
 34 86  1  0
 35 87  1  6
 38 88  1  0
 39 89  1  0
 39 90  1  0
 42 91  1  0
 42 92  1  0
 43 93  1  0
 43 94  1  0
 45 95  1  0
 46 96  1  0
 49 97  1  0
 50 98  1  0
 51 99  1  0
 52100  1  0
 53101  1  0
 53102  1  0
 54103  1  0
 54104  1  0
 55105  1  0
 55106  1  0
 58107  1  0
 58108  1  0
 59109  1  0
 59110  1  0
M  END
>  <Ligand ID>  (1) 
LIG0001464

>  <Ligand>  (1) 
CHEMBL602651

>  <SMILES>  (1) 
O=C(CN(C(=O)[C@H](Cc1ccccc1)NC(=O)CNC(=O)C)Cc1ccccc1)N[C@H](C(=O)N[C@H](C(=O)NCC(=O)N)Cc1c[nH]c2c1cccc2)CCCN=C(N)N

>  <CID>  (1) 
46232218.0

>  <ChEMBL ID>  (1) 
nan

>  <InChiKey>  (1) 
NNWTYMHQMMPOOT-AFEGWXKPSA-N

>  <InChi>  (1) 
InChI=1S/C41H51N11O7/c1-26(53)46-23-36(55)50-34(19-27-11-4-2-5-12-27)40(59)52(24-28-13-6-3-7-14-28)25-37(56)49-32(17-10-18-45-41(43)44)39(58)51-33(38(57)48-22-35(42)54)20-29-21-47-31-16-9-8-15-30(29)31/h2-9,11-16,21,32-34,47H,10,17-20,22-25H2,1H3,(H2,42,54)(H,46,53)(H,48,57)(H,49,56)(H,50,55)(H,51,58)(H4,43,44,45)/t32-,33-,34-/m0/s1

>  <IUPAC Name>  (1) 
(2S)-2-[[2-[[(2S)-2-[(2-acetamidoacetyl)amino]-3-phenylpropanoyl]-benzylamino]acetyl]amino]-N-[(2S)-1-[(2-amino-2-oxoethyl)amino]-3-(1H-indol-3-yl)-1-oxopropan-2-yl]-5-(diaminomethylideneamino)pentanamide

$$$$
