
     RDKit          3D

 33 33  0  0  0  0  0  0  0  0999 V2000
    3.6435   -2.5793    1.3761 F   0  0  0  0  0  0  0  0  0  0  0  0
    2.5406   -1.7123    1.2777 C   0  0  0  0  0  0  0  0  0  0  0  0
    2.2904   -1.5375   -0.1778 C   0  0  0  0  0  0  0  0  0  0  0  0
    1.2621   -0.7375   -0.5804 O   0  0  0  0  0  0  0  0  0  0  0  0
    1.0386    0.5890   -0.4075 C   0  0  0  0  0  0  0  0  0  0  0  0
    1.8566    1.4867    0.2364 C   0  0  0  0  0  0  0  0  0  0  0  0
    1.5474    2.8392    0.3609 C   0  0  0  0  0  0  0  0  0  0  0  0
    0.3825    3.3438   -0.1689 C   0  0  0  0  0  0  0  0  0  0  0  0
   -0.4503    2.4663   -0.8163 C   0  0  0  0  0  0  0  0  0  0  0  0
   -0.1529    1.1049   -0.9483 C   0  0  0  0  0  0  0  0  0  0  0  0
   -1.1488    0.2792   -1.6309 C   0  0  0  0  0  0  0  0  0  0  0  0
   -2.5785    0.2433   -1.4489 C   0  0  0  0  0  0  0  0  0  0  0  0
   -1.7459   -0.8965   -0.8531 C   0  0  0  0  0  0  0  0  0  0  0  0
   -1.7719   -0.9439    0.6342 C   0  0  0  0  0  0  0  0  0  0  0  0
   -2.4187   -2.2136    1.0186 N   0  0  0  0  0  0  0  0  0  0  0  0
   -1.5947    2.9655   -1.3364 F   0  0  0  0  0  0  0  0  0  0  0  0
    0.0584    4.6451   -0.0644 F   0  0  0  0  0  0  0  0  0  0  0  0
    0.6873    0.0000    0.0000 Cl  0  0  0  0  0  0  0  0  0  0  0  0
    1.7242   -2.2883    1.7869 H   0  0  0  0  0  0  0  0  0  0  0  0
    2.8207   -0.8111    1.8172 H   0  0  0  0  0  0  0  0  0  0  0  0
    2.2022   -2.5480   -0.6459 H   0  0  0  0  0  0  0  0  0  0  0  0
    3.2463   -1.1302   -0.6099 H   0  0  0  0  0  0  0  0  0  0  0  0
    2.7742    1.1713    0.6571 H   0  0  0  0  0  0  0  0  0  0  0  0
    2.2256    3.5249    0.8825 H   0  0  0  0  0  0  0  0  0  0  0  0
   -0.7750   -0.0631   -2.6448 H   0  0  0  0  0  0  0  0  0  0  0  0
   -3.2257   -0.0550   -2.3167 H   0  0  0  0  0  0  0  0  0  0  0  0
   -3.1613    0.8565   -0.7462 H   0  0  0  0  0  0  0  0  0  0  0  0
   -1.8328   -1.8757   -1.3683 H   0  0  0  0  0  0  0  0  0  0  0  0
   -2.3976   -0.1154    1.0762 H   0  0  0  0  0  0  0  0  0  0  0  0
   -0.7749   -0.9302    1.0862 H   0  0  0  0  0  0  0  0  0  0  0  0
   -3.4550   -2.1097    0.9150 H   0  0  0  0  0  0  0  0  0  0  0  0
   -2.1290   -2.9682    0.3519 H   0  0  0  0  0  0  0  0  0  0  0  0
   -0.6873    0.0000    0.0000 H   0  0  0  0  0  0  0  0  0  0  0  0
  1  2  1  0
  2  3  1  0
  3  4  1  0
  4  5  1  0
  5  6  2  0
  6  7  1  0
  7  8  2  0
  8  9  1  0
  9 10  2  0
 10 11  1  0
 11 12  1  0
 12 13  1  0
 13 14  1  0
 14 15  1  0
  9 16  1  0
  8 17  1  0
 10  5  1  0
 13 11  1  0
  2 19  1  0
  2 20  1  0
  3 21  1  0
  3 22  1  0
  6 23  1  0
  7 24  1  0
 11 25  1  0
 12 26  1  0
 12 27  1  0
 13 28  1  0
 14 29  1  0
 14 30  1  0
 15 31  1  0
 15 32  1  0
 18 33  1  0
M  END
>  <Ligand ID>  (1) 
LIG0002855

>  <Ligand>  (1) 
CHEMBL3770599

>  <SMILES>  (1) 
FCCOc1ccc(c(c1C1CC1CN)F)F.Cl

>  <CID>  (1) 
127026556.0

>  <ChEMBL ID>  (1) 
nan

>  <InChiKey>  (1) 
MKDIHNLGIBZCHX-UHFFFAOYSA-N

>  <InChi>  (1) 
InChI=1S/C12H14F3NO.ClH/c13-3-4-17-10-2-1-9(14)12(15)11(10)8-5-7(8)6-16;/h1-2,7-8H,3-6,16H2;1H

>  <IUPAC Name>  (1) 
[2-[2,3-difluoro-6-(2-fluoroethoxy)phenyl]cyclopropyl]methanamine;hydrochloride

$$$$
