
     RDKit          3D

 39 40  0  0  0  0  0  0  0  0999 V2000
   -0.1661    1.1001   -2.5322 O   0  0  0  0  0  0  0  0  0  0  0  0
   -0.6259    0.7592   -1.2724 C   0  0  2  0  0  0  0  0  0  0  0  0
    0.0249   -0.5213   -0.7890 C   0  0  1  0  0  0  0  0  0  0  0  0
    1.4558   -0.2946   -0.3701 C   0  0  0  0  0  0  0  0  0  0  0  0
    2.1459    0.0258   -1.5519 O   0  0  0  0  0  0  0  0  0  0  0  0
    3.7808    0.3166   -1.2821 P   0  0  0  0  0  0  0  0  0  0  0  0
    4.5379   -0.9617   -1.6049 O   0  0  0  0  0  0  0  0  0  0  0  0
    3.9705    0.7243    0.3302 O   0  0  0  0  0  0  0  0  0  0  0  0
    5.2737   -0.1246    0.9667 P   0  0  0  0  0  0  0  0  0  0  0  0
    4.7157   -1.3224    1.7367 O   0  0  0  0  0  0  0  0  0  0  0  0
    6.3495   -0.6390   -0.2152 O   0  0  0  0  0  0  0  0  0  0  0  0
    6.1169    0.9038    2.0218 O   0  0  0  0  0  0  0  0  0  0  0  0
    4.3986    1.5171   -2.2877 O   0  0  0  0  0  0  0  0  0  0  0  0
   -0.7992   -0.8497    0.2632 O   0  0  0  0  0  0  0  0  0  0  0  0
   -2.0787   -0.7606   -0.2353 C   0  0  2  0  0  0  0  0  0  0  0  0
   -2.0742    0.3062   -1.3080 C   0  0  2  0  0  0  0  0  0  0  0  0
   -2.2631   -0.2545   -2.5921 O   0  0  0  0  0  0  0  0  0  0  0  0
   -3.0925   -0.5045    0.7613 N   0  0  0  0  0  0  0  0  0  0  0  0
   -3.0472    0.6513    1.4485 C   0  0  0  0  0  0  0  0  0  0  0  0
   -4.0379    0.8678    2.4012 C   0  0  0  0  0  0  0  0  0  0  0  0
   -4.0828    2.0019    3.1492 F   0  0  0  0  0  0  0  0  0  0  0  0
   -5.0257   -0.0650    2.6310 C   0  0  0  0  0  0  0  0  0  0  0  0
   -5.9347    0.1162    3.4942 O   0  0  0  0  0  0  0  0  0  0  0  0
   -5.0274   -1.2039    1.9184 N   0  0  0  0  0  0  0  0  0  0  0  0
   -4.0739   -1.3968    1.0113 C   0  0  0  0  0  0  0  0  0  0  0  0
   -4.0976   -2.4724    0.3565 O   0  0  0  0  0  0  0  0  0  0  0  0
    0.4760    1.8410   -2.3952 H   0  0  0  0  0  0  0  0  0  0  0  0
   -0.4854    1.5844   -0.5324 H   0  0  0  0  0  0  0  0  0  0  0  0
   -0.0578   -1.2305   -1.6366 H   0  0  0  0  0  0  0  0  0  0  0  0
    1.5413    0.4955    0.3813 H   0  0  0  0  0  0  0  0  0  0  0  0
    1.8690   -1.2569   -0.0062 H   0  0  0  0  0  0  0  0  0  0  0  0
    6.7827   -1.4742    0.0829 H   0  0  0  0  0  0  0  0  0  0  0  0
    6.1467    1.7967    1.5802 H   0  0  0  0  0  0  0  0  0  0  0  0
    3.6900    2.0500   -2.7267 H   0  0  0  0  0  0  0  0  0  0  0  0
   -2.2847   -1.7342   -0.7450 H   0  0  0  0  0  0  0  0  0  0  0  0
   -2.7869    1.1258   -1.1255 H   0  0  0  0  0  0  0  0  0  0  0  0
   -3.1696   -0.5882   -2.6995 H   0  0  0  0  0  0  0  0  0  0  0  0
   -2.2960    1.3991    1.2979 H   0  0  0  0  0  0  0  0  0  0  0  0
   -5.7684   -1.9281    2.0754 H   0  0  0  0  0  0  0  0  0  0  0  0
  1  2  1  0
  2  3  1  0
  3  4  1  0
  4  5  1  0
  5  6  1  0
  6  7  2  0
  6  8  1  0
  8  9  1  0
  9 10  2  0
  9 11  1  0
  9 12  1  0
  6 13  1  0
  3 14  1  0
 14 15  1  0
 15 16  1  0
 16 17  1  0
 15 18  1  0
 18 19  1  0
 19 20  2  0
 20 21  1  0
 20 22  1  0
 22 23  2  0
 22 24  1  0
 24 25  1  0
 25 26  2  0
 16  2  1  0
 25 18  1  0
  1 27  1  0
  2 28  1  1
  3 29  1  6
  4 30  1  0
  4 31  1  0
 11 32  1  0
 12 33  1  0
 13 34  1  0
 15 35  1  6
 16 36  1  1
 17 37  1  0
 19 38  1  0
 24 39  1  0
M  END
>  <Ligand ID>  (1) 
LIG0002450

>  <Ligand>  (1) 
5-fluorouridine diphosphate

>  <SMILES>  (1) 
O[C@@H]1[C@@H](COP(=O)(OP(=O)(O)O)O)O[C@H]([C@@H]1O)n1cc(F)c(=O)[nH]c1=O

>  <CID>  (1) 
10432343.0

>  <ChEMBL ID>  (1) 
nan

>  <InChiKey>  (1) 
FOZCNVFQOJRHFF-UAKXSSHOSA-N

>  <InChi>  (1) 
InChI=1S/C9H13FN2O12P2/c10-3-1-12(9(16)11-7(3)15)8-6(14)5(13)4(23-8)2-22-26(20,21)24-25(17,18)19/h1,4-6,8,13-14H,2H2,(H,20,21)(H,11,15,16)(H2,17,18,19)/t4-,5-,6-,8-/m1/s1

>  <IUPAC Name>  (1) 
[(2R,3S,4R,5R)-5-(5-fluoro-2,4-dioxopyrimidin-1-yl)-3,4-dihydroxyoxolan-2-yl]methyl phosphono hydrogen phosphate

$$$$
