
     RDKit          3D

 56 57  0  0  0  0  0  0  0  0999 V2000
   -0.6076   -0.6987    0.9558 O   0  0  0  0  0  0  0  0  0  0  0  0
   -1.0750   -0.0286   -0.0020 C   0  0  0  0  0  0  0  0  0  0  0  0
   -0.2448    0.4512   -1.0692 N   0  0  0  0  0  0  0  0  0  0  0  0
    1.1676    0.1385   -1.0107 C   0  0  0  0  0  0  0  0  0  0  0  0
    1.5543   -0.5379   -0.0201 N   0  0  0  0  0  0  0  0  0  0  0  0
    2.8475   -1.0050    0.3319 C   0  0  0  0  0  0  0  0  0  0  0  0
    3.6170   -1.6706   -0.7844 C   0  0  0  0  0  0  0  0  0  0  0  0
    4.9629   -2.0860   -0.1724 C   0  0  0  0  0  0  0  0  0  0  0  0
    5.6694   -0.9072    0.3203 C   0  0  0  0  0  0  0  0  0  0  0  0
    5.7689   -0.4283    2.0905 S   0  0  0  0  0  0  0  0  0  0  0  0
    6.7981    1.0914    1.6358 C   0  0  0  0  0  0  0  0  0  0  0  0
    6.8983    1.0144    0.3659 N   0  0  0  0  0  0  0  0  0  0  0  0
    6.3753    0.0699   -0.3414 C   0  0  0  0  0  0  0  0  0  0  0  0
    6.5144   -0.0017   -1.8555 C   0  0  0  0  0  0  0  0  0  0  0  0
    7.2416    1.9733    2.6687 N   0  0  0  0  0  0  0  0  0  0  0  0
    1.9797    0.6221   -2.0690 N   0  0  0  0  0  0  0  0  0  0  0  0
   -2.5459    0.2956   -0.0565 C   0  0  0  0  0  0  0  0  0  0  0  0
   -3.2718   -0.2811    1.1230 C   0  0  1  0  0  0  0  0  0  0  0  0
   -4.7505    0.0491    1.0650 C   0  0  0  0  0  0  0  0  0  0  0  0
   -5.0332    1.5079    1.0667 C   0  0  0  0  0  0  0  0  0  0  0  0
   -5.5204    2.1361   -0.1721 C   0  0  0  0  0  0  0  0  0  0  0  0
   -5.6770    1.2457   -1.3644 C   0  0  0  0  0  0  0  0  0  0  0  0
   -6.3430   -0.0093   -0.8845 C   0  0  0  0  0  0  0  0  0  0  0  0
   -5.3802   -0.7565   -0.0121 C   0  0  0  0  0  0  0  0  0  0  0  0
   -3.1754   -1.7907    1.1726 C   0  0  0  0  0  0  0  0  0  0  0  0
   -0.6099    1.0042   -1.8695 H   0  0  0  0  0  0  0  0  0  0  0  0
    2.8286   -1.6846    1.2322 H   0  0  0  0  0  0  0  0  0  0  0  0
    3.4673   -0.1456    0.6632 H   0  0  0  0  0  0  0  0  0  0  0  0
    3.8080   -0.9952   -1.6249 H   0  0  0  0  0  0  0  0  0  0  0  0
    3.1678   -2.6413   -1.1110 H   0  0  0  0  0  0  0  0  0  0  0  0
    5.5515   -2.6982   -0.8707 H   0  0  0  0  0  0  0  0  0  0  0  0
    4.7027   -2.7224    0.7006 H   0  0  0  0  0  0  0  0  0  0  0  0
    7.3898    0.5658   -2.1846 H   0  0  0  0  0  0  0  0  0  0  0  0
    6.7048   -1.0630   -2.1664 H   0  0  0  0  0  0  0  0  0  0  0  0
    5.6225    0.3987   -2.3331 H   0  0  0  0  0  0  0  0  0  0  0  0
    6.5485    2.6762    3.0187 H   0  0  0  0  0  0  0  0  0  0  0  0
    8.1932    1.9469    3.0745 H   0  0  0  0  0  0  0  0  0  0  0  0
    2.4856    1.5277   -2.0612 H   0  0  0  0  0  0  0  0  0  0  0  0
    2.0655    0.0090   -2.9163 H   0  0  0  0  0  0  0  0  0  0  0  0
   -2.6509    1.3794   -0.0913 H   0  0  0  0  0  0  0  0  0  0  0  0
   -2.9042   -0.1323   -0.9924 H   0  0  0  0  0  0  0  0  0  0  0  0
   -2.8728    0.0992    2.0793 H   0  0  0  0  0  0  0  0  0  0  0  0
   -5.1319   -0.3590    2.0488 H   0  0  0  0  0  0  0  0  0  0  0  0
   -5.7170    1.8099    1.9100 H   0  0  0  0  0  0  0  0  0  0  0  0
   -4.0663    2.0168    1.3605 H   0  0  0  0  0  0  0  0  0  0  0  0
   -4.8668    2.9956   -0.5063 H   0  0  0  0  0  0  0  0  0  0  0  0
   -6.5202    2.6402   -0.0167 H   0  0  0  0  0  0  0  0  0  0  0  0
   -6.3539    1.7816   -2.0932 H   0  0  0  0  0  0  0  0  0  0  0  0
   -4.7525    1.0683   -1.9397 H   0  0  0  0  0  0  0  0  0  0  0  0
   -6.5340   -0.6480   -1.7930 H   0  0  0  0  0  0  0  0  0  0  0  0
   -7.2813    0.2511   -0.4003 H   0  0  0  0  0  0  0  0  0  0  0  0
   -4.6135   -1.2038   -0.6791 H   0  0  0  0  0  0  0  0  0  0  0  0
   -5.9602   -1.6333    0.3795 H   0  0  0  0  0  0  0  0  0  0  0  0
   -4.1204   -2.2847    1.4851 H   0  0  0  0  0  0  0  0  0  0  0  0
   -2.4170   -2.1246    1.9408 H   0  0  0  0  0  0  0  0  0  0  0  0
   -2.9331   -2.2281    0.1767 H   0  0  0  0  0  0  0  0  0  0  0  0
  1  2  2  0
  2  3  1  0
  3  4  1  0
  4  5  2  3
  5  6  1  0
  6  7  1  0
  7  8  1  0
  8  9  1  0
  9 10  1  0
 10 11  1  0
 11 12  2  0
 12 13  1  0
 13 14  1  0
 11 15  1  0
  4 16  1  0
  2 17  1  0
 17 18  1  0
 18 19  1  0
 19 20  1  0
 20 21  1  0
 21 22  1  0
 22 23  1  0
 23 24  1  0
 18 25  1  0
 13  9  2  0
 24 19  1  0
  3 26  1  0
  6 27  1  0
  6 28  1  0
  7 29  1  0
  7 30  1  0
  8 31  1  0
  8 32  1  0
 14 33  1  0
 14 34  1  0
 14 35  1  0
 15 36  1  0
 15 37  1  0
 16 38  1  0
 16 39  1  0
 17 40  1  0
 17 41  1  0
 18 42  1  1
 19 43  1  0
 20 44  1  0
 20 45  1  0
 21 46  1  0
 21 47  1  0
 22 48  1  0
 22 49  1  0
 23 50  1  0
 23 51  1  0
 24 52  1  0
 24 53  1  0
 25 54  1  0
 25 55  1  0
 25 56  1  0
M  END
>  <Ligand ID>  (1) 
LIG0000949

>  <Ligand>  (1) 
CHEMBL1094144

>  <SMILES>  (1) 
O=C(NC(=NCCCc1sc(nc1C)N)N)C[C@@H](C1CCCCC1)C

>  <CID>  (1) 
46887115.0

>  <ChEMBL ID>  (1) 
nan

>  <InChiKey>  (1) 
WWEBJYNVUIMDCZ-LBPRGKRZSA-N

>  <InChi>  (1) 
InChI=1S/C18H31N5OS/c1-12(14-7-4-3-5-8-14)11-16(24)23-17(19)21-10-6-9-15-13(2)22-18(20)25-15/h12,14H,3-11H2,1-2H3,(H2,20,22)(H3,19,21,23,24)/t12-/m0/s1

>  <IUPAC Name>  (1) 
(3S)-N-[N'-[3-(2-amino-4-methyl-1,3-thiazol-5-yl)propyl]carbamimidoyl]-3-cyclohexylbutanamide

$$$$
