
     RDKit          3D

 69 69  0  0  0  0  0  0  0  0999 V2000
    7.5291    2.7947   -0.9114 C   0  0  0  0  0  0  0  0  0  0  0  0
    8.3529    1.6450   -1.4283 C   0  0  0  0  0  0  0  0  0  0  0  0
    7.9881    0.4058   -0.6524 C   0  0  0  0  0  0  0  0  0  0  0  0
    6.4989    0.1475   -0.8697 C   0  0  0  0  0  0  0  0  0  0  0  0
    6.1226   -1.0998   -0.1103 C   0  0  0  0  0  0  0  0  0  0  0  0
    4.6525   -1.3829   -0.3183 C   0  0  0  0  0  0  0  0  0  0  0  0
    3.7396   -0.2972    0.1759 C   0  0  0  0  0  0  0  0  0  0  0  0
    2.4118   -0.6407   -0.0711 O   0  0  0  0  0  0  0  0  0  0  0  0
    1.7228   -0.8109   -1.2125 C   0  0  0  0  0  0  0  0  0  0  0  0
    2.1687   -0.6498   -2.5005 C   0  0  0  0  0  0  0  0  0  0  0  0
    1.3583   -0.8506   -3.6065 C   0  0  0  0  0  0  0  0  0  0  0  0
    0.0465   -1.2259   -3.4598 C   0  0  0  0  0  0  0  0  0  0  0  0
   -0.4284   -1.3939   -2.1838 C   0  0  0  0  0  0  0  0  0  0  0  0
    0.3727   -1.1962   -1.0919 C   0  0  0  0  0  0  0  0  0  0  0  0
   -0.2306   -1.4055    0.2461 C   0  0  0  0  0  0  0  0  0  0  0  0
   -0.4875   -0.0204    0.8457 C   0  0  0  0  0  0  0  0  0  0  0  0
   -1.1020   -0.2975    2.1803 C   0  0  0  0  0  0  0  0  0  0  0  0
   -1.2747   -1.5272    2.4469 O   0  0  0  0  0  0  0  0  0  0  0  0
   -1.4483    0.7248    3.0442 O   0  0  0  0  0  0  0  0  0  0  0  0
   -2.0290    0.3883    4.2820 C   0  0  0  0  0  0  0  0  0  0  0  0
   -3.3382   -0.2966    4.0396 C   0  0  0  0  0  0  0  0  0  0  0  0
   -4.2929    0.6273    3.2720 C   0  0  0  0  0  0  0  0  0  0  0  0
   -5.4757   -0.0886    3.0927 O   0  0  0  0  0  0  0  0  0  0  0  0
   -6.5573    0.9776    2.3518 P   0  0  0  0  0  0  0  0  0  0  0  0
   -7.9657    0.6146    2.7181 O   0  0  0  0  0  0  0  0  0  0  0  0
   -6.3007    0.9086    0.6865 O   0  0  0  0  0  0  0  0  0  0  0  0
   -6.9383   -0.2337    0.1957 C   0  0  0  0  0  0  0  0  0  0  0  0
   -7.0937   -0.0007   -1.3094 C   0  0  1  0  0  0  0  0  0  0  0  0
   -5.7665    0.3006   -1.8776 C   0  0  0  0  0  0  0  0  0  0  0  0
   -5.0315    1.2630   -1.4693 O   0  0  0  0  0  0  0  0  0  0  0  0
   -5.1965   -0.4501   -2.9232 O   0  0  0  0  0  0  0  0  0  0  0  0
   -7.7477   -1.1264   -1.9073 N   0  0  0  0  0  0  0  0  0  0  0  0
   -6.2405    2.5813    2.8338 O   0  0  0  0  0  0  0  0  0  0  0  0
    6.5274    2.7838   -1.3856 H   0  0  0  0  0  0  0  0  0  0  0  0
    8.0645    3.7457   -1.1344 H   0  0  0  0  0  0  0  0  0  0  0  0
    7.4064    2.6712    0.1813 H   0  0  0  0  0  0  0  0  0  0  0  0
    9.4399    1.8606   -1.3758 H   0  0  0  0  0  0  0  0  0  0  0  0
    8.0675    1.5142   -2.5099 H   0  0  0  0  0  0  0  0  0  0  0  0
    8.1561    0.5929    0.4318 H   0  0  0  0  0  0  0  0  0  0  0  0
    8.5863   -0.4544   -0.9595 H   0  0  0  0  0  0  0  0  0  0  0  0
    6.2544    0.0388   -1.9334 H   0  0  0  0  0  0  0  0  0  0  0  0
    5.9508    1.0507   -0.4992 H   0  0  0  0  0  0  0  0  0  0  0  0
    6.6811   -1.9479   -0.5425 H   0  0  0  0  0  0  0  0  0  0  0  0
    6.3479   -1.0123    0.9666 H   0  0  0  0  0  0  0  0  0  0  0  0
    4.3775   -2.2920    0.3215 H   0  0  0  0  0  0  0  0  0  0  0  0
    4.4194   -1.6191   -1.3603 H   0  0  0  0  0  0  0  0  0  0  0  0
    4.0132    0.6737   -0.3414 H   0  0  0  0  0  0  0  0  0  0  0  0
    3.9034   -0.0709    1.2543 H   0  0  0  0  0  0  0  0  0  0  0  0
    3.1786   -0.3353   -2.7166 H   0  0  0  0  0  0  0  0  0  0  0  0
    1.7117   -0.7257   -4.6255 H   0  0  0  0  0  0  0  0  0  0  0  0
   -0.6015   -1.3877   -4.2932 H   0  0  0  0  0  0  0  0  0  0  0  0
   -1.4732   -1.6936   -2.0846 H   0  0  0  0  0  0  0  0  0  0  0  0
   -1.1513   -1.9921    0.1807 H   0  0  0  0  0  0  0  0  0  0  0  0
    0.4778   -1.9260    0.8945 H   0  0  0  0  0  0  0  0  0  0  0  0
   -1.1361    0.6067    0.2086 H   0  0  0  0  0  0  0  0  0  0  0  0
    0.4662    0.4949    1.0535 H   0  0  0  0  0  0  0  0  0  0  0  0
   -1.3085   -0.3495    4.7422 H   0  0  0  0  0  0  0  0  0  0  0  0
   -2.1000    1.2365    4.9716 H   0  0  0  0  0  0  0  0  0  0  0  0
   -3.2916   -1.2308    3.4614 H   0  0  0  0  0  0  0  0  0  0  0  0
   -3.8036   -0.5908    5.0186 H   0  0  0  0  0  0  0  0  0  0  0  0
   -3.8845    0.8350    2.2774 H   0  0  0  0  0  0  0  0  0  0  0  0
   -4.4647    1.5614    3.8363 H   0  0  0  0  0  0  0  0  0  0  0  0
   -7.8807   -0.3634    0.7210 H   0  0  0  0  0  0  0  0  0  0  0  0
   -6.2182   -1.0819    0.3577 H   0  0  0  0  0  0  0  0  0  0  0  0
   -7.7473    0.8945   -1.4587 H   0  0  0  0  0  0  0  0  0  0  0  0
   -4.7561    0.0167   -3.7165 H   0  0  0  0  0  0  0  0  0  0  0  0
   -7.0707   -1.8082   -2.2852 H   0  0  0  0  0  0  0  0  0  0  0  0
   -8.4219   -0.8496   -2.6526 H   0  0  0  0  0  0  0  0  0  0  0  0
   -6.7395    2.7695    3.6801 H   0  0  0  0  0  0  0  0  0  0  0  0
  1  2  1  0
  2  3  1  0
  3  4  1  0
  4  5  1  0
  5  6  1  0
  6  7  1  0
  7  8  1  0
  8  9  1  0
  9 10  2  0
 10 11  1  0
 11 12  2  0
 12 13  1  0
 13 14  2  0
 14 15  1  0
 15 16  1  0
 16 17  1  0
 17 18  2  0
 17 19  1  0
 19 20  1  0
 20 21  1  0
 21 22  1  0
 22 23  1  0
 23 24  1  0
 24 25  2  0
 24 26  1  0
 26 27  1  0
 27 28  1  0
 28 29  1  0
 29 30  2  0
 29 31  1  0
 28 32  1  0
 24 33  1  0
 14  9  1  0
  1 34  1  0
  1 35  1  0
  1 36  1  0
  2 37  1  0
  2 38  1  0
  3 39  1  0
  3 40  1  0
  4 41  1  0
  4 42  1  0
  5 43  1  0
  5 44  1  0
  6 45  1  0
  6 46  1  0
  7 47  1  0
  7 48  1  0
 10 49  1  0
 11 50  1  0
 12 51  1  0
 13 52  1  0
 15 53  1  0
 15 54  1  0
 16 55  1  0
 16 56  1  0
 20 57  1  0
 20 58  1  0
 21 59  1  0
 21 60  1  0
 22 61  1  0
 22 62  1  0
 27 63  1  0
 27 64  1  0
 28 65  1  1
 31 66  1  0
 32 67  1  0
 32 68  1  0
 33 69  1  0
M  END
>  <Ligand ID>  (1) 
LIG0004304

>  <Ligand>  (1) 
CHEMBL3577177

>  <SMILES>  (1) 
CCCCCCCOc1ccccc1CCC(=O)OCCCOP(=O)(OC[C@@H](C(=O)O)N)O

>  <CID>  (1) 
122177523.0

>  <ChEMBL ID>  (1) 
nan

>  <InChiKey>  (1) 
FMJWNEQNALGMKR-IBGZPJMESA-N

>  <InChi>  (1) 
InChI=1S/C22H36NO9P/c1-2-3-4-5-8-14-29-20-11-7-6-10-18(20)12-13-21(24)30-15-9-16-31-33(27,28)32-17-19(23)22(25)26/h6-7,10-11,19H,2-5,8-9,12-17,23H2,1H3,(H,25,26)(H,27,28)/t19-/m0/s1

>  <IUPAC Name>  (1) 
(2S)-2-amino-3-[3-[3-(2-heptoxyphenyl)propanoyloxy]propoxy-hydroxyphosphoryl]oxypropanoic acid

$$$$
