
     RDKit          2D

173177  0  0  0  0  0  0  0  0999 V2000
   -0.6964  -10.7251    0.0000 C   0  0  0  0  0  0  0  0  0  0  0  0
    0.4183   -9.7214    0.0000 N   0  0  0  0  0  0  0  0  0  0  0  0
    0.1065   -8.2542    0.0000 C   0  0  0  0  0  0  0  0  0  0  0  0
    1.2212   -7.2505    0.0000 N   0  0  0  0  0  0  0  0  0  0  0  0
    0.9093   -5.7833    0.0000 C   0  0  0  0  0  0  0  0  0  0  0  0
    0.5974   -4.3160    0.0000 C   0  0  0  0  0  0  0  0  0  0  0  0
    0.2856   -2.8488    0.0000 C   0  0  0  0  0  0  0  0  0  0  0  0
   -0.0263   -1.3816    0.0000 C   0  0  0  0  0  0  0  0  0  0  0  0
   -0.3382    0.0856    0.0000 C   0  0  0  0  0  0  0  0  0  0  0  0
    0.3657    0.4598    0.0000 O   0  0  0  0  0  0  0  0  0  0  0  0
   -1.7648    0.5492    0.0000 N   0  0  0  0  0  0  0  0  0  0  0  0
   -2.0766    2.0164    0.0000 C   0  0  0  0  0  0  0  0  0  0  0  0
   -0.6094    2.3282    0.0000 C   0  0  0  0  0  0  0  0  0  0  0  0
   -0.8700    3.8054    0.0000 O   0  0  0  0  0  0  0  0  0  0  0  0
    0.3943    1.2135    0.0000 N   0  0  0  0  0  0  0  0  0  0  0  0
   -3.5438    1.7045    0.0000 C   0  0  0  0  0  0  0  0  0  0  0  0
   -5.0111    1.3926    0.0000 C   0  0  0  0  0  0  0  0  0  0  0  0
   -6.0148    2.5074    0.0000 C   0  0  0  0  0  0  0  0  0  0  0  0
   -7.4820    2.1955    0.0000 C   0  0  0  0  0  0  0  0  0  0  0  0
   -7.9455    0.7689    0.0000 C   0  0  0  0  0  0  0  0  0  0  0  0
   -6.9418   -0.3458    0.0000 C   0  0  0  0  0  0  0  0  0  0  0  0
   -5.4746   -0.0339    0.0000 C   0  0  0  0  0  0  0  0  0  0  0  0
    1.4409   -1.0697    0.0000 N   0  0  0  0  0  0  0  0  0  0  0  0
    1.9044    0.3569    0.0000 C   0  0  0  0  0  0  0  0  0  0  0  0
    0.9008    1.4716    0.0000 O   0  0  0  0  0  0  0  0  0  0  0  0
    3.3717    0.6687    0.0000 C   0  0  0  0  0  0  0  0  0  0  0  0
    3.0598    2.1359    0.0000 N   0  0  0  0  0  0  0  0  0  0  0  0
    1.6332    2.5995    0.0000 C   0  0  0  0  0  0  0  0  0  0  0  0
    0.7945    1.3559    0.0000 O   0  0  0  0  0  0  0  0  0  0  0  0
    1.3213    4.0667    0.0000 N   0  0  0  0  0  0  0  0  0  0  0  0
   -0.1052    4.5302    0.0000 N   0  0  0  0  0  0  0  0  0  0  0  0
   -0.4171    5.9974    0.0000 C   0  0  0  0  0  0  0  0  0  0  0  0
    0.8116    6.8578    0.0000 O   0  0  0  0  0  0  0  0  0  0  0  0
   -1.8437    6.4610    0.0000 C   0  0  0  0  0  0  0  0  0  0  0  0
   -1.3802    7.8876    0.0000 N   0  0  0  0  0  0  0  0  0  0  0  0
    0.0871    8.1994    0.0000 C   0  0  0  0  0  0  0  0  0  0  0  0
    0.9474    6.9707    0.0000 O   0  0  0  0  0  0  0  0  0  0  0  0
    0.5506    9.6260    0.0000 C   0  0  0  0  0  0  0  0  0  0  0  0
    1.0141   11.0526    0.0000 C   0  0  0  0  0  0  0  0  0  0  0  0
   -0.4125   11.5161    0.0000 O   0  0  0  0  0  0  0  0  0  0  0  0
    1.4776   12.4792    0.0000 C   0  0  0  0  0  0  0  0  0  0  0  0
    1.9772    9.1625    0.0000 N   0  0  0  0  0  0  0  0  0  0  0  0
    2.2890    7.6953    0.0000 C   0  0  0  0  0  0  0  0  0  0  0  0
    1.3050    6.5632    0.0000 O   0  0  0  0  0  0  0  0  0  0  0  0
    3.7156    7.2317    0.0000 C   0  0  0  0  0  0  0  0  0  0  0  0
    3.2521    5.8051    0.0000 N   0  0  0  0  0  0  0  0  0  0  0  0
    1.7849    5.4933    0.0000 C   0  0  0  0  0  0  0  0  0  0  0  0
    0.6528    6.4773    0.0000 O   0  0  0  0  0  0  0  0  0  0  0  0
    1.3213    4.0667    0.0000 C   0  0  0  0  0  0  0  0  0  0  0  0
    0.8578    2.6401    0.0000 C   0  0  0  0  0  0  0  0  0  0  0  0
    0.3943    1.2135    0.0000 C   0  0  0  0  0  0  0  0  0  0  0  0
    1.2760    0.0000    0.0000 C   0  0  0  0  0  0  0  0  0  0  0  0
    0.3943   -1.2135    0.0000 N   0  0  0  0  0  0  0  0  0  0  0  0
   -1.0323   -0.7500    0.0000 C   0  0  0  0  0  0  0  0  0  0  0  0
   -1.0323    0.7500    0.0000 C   0  0  0  0  0  0  0  0  0  0  0  0
   -2.3313    1.5000    0.0000 C   0  0  0  0  0  0  0  0  0  0  0  0
   -3.6304    0.7500    0.0000 C   0  0  0  0  0  0  0  0  0  0  0  0
   -3.6304   -0.7500    0.0000 C   0  0  0  0  0  0  0  0  0  0  0  0
   -2.3313   -1.5000    0.0000 C   0  0  0  0  0  0  0  0  0  0  0  0
    2.7479    3.6032    0.0000 N   0  0  0  0  0  0  0  0  0  0  0  0
    3.8627    4.6069    0.0000 C   0  0  0  0  0  0  0  0  0  0  0  0
    3.9151    6.1059    0.0000 O   0  0  0  0  0  0  0  0  0  0  0  0
    5.2892    4.1433    0.0000 C   0  0  0  0  0  0  0  0  0  0  0  0
    6.7158    3.6798    0.0000 C   0  0  0  0  0  0  0  0  0  0  0  0
    8.1424    3.2163    0.0000 C   0  0  0  0  0  0  0  0  0  0  0  0
    8.4543    1.7491    0.0000 C   0  0  0  0  0  0  0  0  0  0  0  0
    9.8809    1.2855    0.0000 C   0  0  0  0  0  0  0  0  0  0  0  0
   10.9956    2.2892    0.0000 C   0  0  0  0  0  0  0  0  0  0  0  0
   10.6837    3.7565    0.0000 C   0  0  0  0  0  0  0  0  0  0  0  0
    9.2571    4.2200    0.0000 C   0  0  0  0  0  0  0  0  0  0  0  0
   12.4222    1.8257    0.0000 O   0  0  0  0  0  0  0  0  0  0  0  0
    5.7528    5.5699    0.0000 N   0  0  0  0  0  0  0  0  0  0  0  0
    7.2200    5.8818    0.0000 C   0  0  0  0  0  0  0  0  0  0  0  0
    8.2237    4.7671    0.0000 O   0  0  0  0  0  0  0  0  0  0  0  0
    7.6835    7.3084    0.0000 C   0  0  0  0  0  0  0  0  0  0  0  0
    5.1422    6.7682    0.0000 C   0  0  0  0  0  0  0  0  0  0  0  0
    6.5688    6.3047    0.0000 C   0  0  0  0  0  0  0  0  0  0  0  0
    7.0572    4.8864    0.0000 O   0  0  0  0  0  0  0  0  0  0  0  0
    7.6835    7.3084    0.0000 N   0  0  0  0  0  0  0  0  0  0  0  0
   -3.2703    6.9245    0.0000 C   0  0  0  0  0  0  0  0  0  0  0  0
   -4.6969    7.3880    0.0000 C   0  0  0  0  0  0  0  0  0  0  0  0
   -5.0087    8.8552    0.0000 C   0  0  0  0  0  0  0  0  0  0  0  0
   -6.4353    9.3188    0.0000 C   0  0  0  0  0  0  0  0  0  0  0  0
   -7.5500    8.3151    0.0000 C   0  0  0  0  0  0  0  0  0  0  0  0
   -7.2382    6.8478    0.0000 C   0  0  0  0  0  0  0  0  0  0  0  0
   -5.8116    6.3843    0.0000 C   0  0  0  0  0  0  0  0  0  0  0  0
    4.8389    0.9806    0.0000 C   0  0  0  0  0  0  0  0  0  0  0  0
    6.3061    1.2925    0.0000 C   0  0  0  0  0  0  0  0  0  0  0  0
    7.7733    1.6043    0.0000 C   0  0  0  0  0  0  0  0  0  0  0  0
    6.6180   -0.1748    0.0000 C   0  0  0  0  0  0  0  0  0  0  0  0
   -1.3201   -7.7906    0.0000 N   0  0  0  0  0  0  0  0  0  0  0  0
   -1.8111  -11.7288    0.0000 H   0  0  0  0  0  0  0  0  0  0  0  0
    0.3073  -11.8398    0.0000 H   0  0  0  0  0  0  0  0  0  0  0  0
   -1.7001   -9.6104    0.0000 H   0  0  0  0  0  0  0  0  0  0  0  0
    2.6478   -7.7140    0.0000 H   0  0  0  0  0  0  0  0  0  0  0  0
    2.3765   -5.4714    0.0000 H   0  0  0  0  0  0  0  0  0  0  0  0
   -0.5579   -6.0951    0.0000 H   0  0  0  0  0  0  0  0  0  0  0  0
    2.0647   -4.0042    0.0000 H   0  0  0  0  0  0  0  0  0  0  0  0
   -0.8698   -4.6279    0.0000 H   0  0  0  0  0  0  0  0  0  0  0  0
    1.7847   -2.9012    0.0000 H   0  0  0  0  0  0  0  0  0  0  0  0
   -1.1817   -3.1607    0.0000 H   0  0  0  0  0  0  0  0  0  0  0  0
   -1.4935   -1.6935    0.0000 H   0  0  0  0  0  0  0  0  0  0  0  0
   -2.7488   -0.5829    0.0000 H   0  0  0  0  0  0  0  0  0  0  0  0
   -2.2073    3.5107    0.0000 H   0  0  0  0  0  0  0  0  0  0  0  0
    1.8886    1.3442    0.0000 H   0  0  0  0  0  0  0  0  0  0  0  0
    0.2897   -0.2828    0.0000 H   0  0  0  0  0  0  0  0  0  0  0  0
   -3.7786    0.2230    0.0000 H   0  0  0  0  0  0  0  0  0  0  0  0
   -3.8557    3.1717    0.0000 H   0  0  0  0  0  0  0  0  0  0  0  0
   -5.5512    3.9339    0.0000 H   0  0  0  0  0  0  0  0  0  0  0  0
   -8.4857    3.3102    0.0000 H   0  0  0  0  0  0  0  0  0  0  0  0
   -9.4127    0.4570    0.0000 H   0  0  0  0  0  0  0  0  0  0  0  0
   -7.4053   -1.7724    0.0000 H   0  0  0  0  0  0  0  0  0  0  0  0
   -4.6143   -1.2627    0.0000 H   0  0  0  0  0  0  0  0  0  0  0  0
    2.5730   -2.0538    0.0000 H   0  0  0  0  0  0  0  0  0  0  0  0
    3.6835   -0.7985    0.0000 H   0  0  0  0  0  0  0  0  0  0  0  0
    4.1745    3.1396    0.0000 H   0  0  0  0  0  0  0  0  0  0  0  0
    2.1601    5.3103    0.0000 H   0  0  0  0  0  0  0  0  0  0  0  0
   -1.3340    3.6699    0.0000 H   0  0  0  0  0  0  0  0  0  0  0  0
   -2.3072    5.0344    0.0000 H   0  0  0  0  0  0  0  0  0  0  0  0
   -2.2405    9.1163    0.0000 H   0  0  0  0  0  0  0  0  0  0  0  0
   -0.8760   10.0895    0.0000 H   0  0  0  0  0  0  0  0  0  0  0  0
    2.4866   10.7664    0.0000 H   0  0  0  0  0  0  0  0  0  0  0  0
   -0.9009   12.9344    0.0000 H   0  0  0  0  0  0  0  0  0  0  0  0
    1.9412   13.9058    0.0000 H   0  0  0  0  0  0  0  0  0  0  0  0
    2.9042   12.0156    0.0000 H   0  0  0  0  0  0  0  0  0  0  0  0
    0.1182   13.1131    0.0000 H   0  0  0  0  0  0  0  0  0  0  0  0
    3.2059   10.0228    0.0000 H   0  0  0  0  0  0  0  0  0  0  0  0
    4.1791    8.6583    0.0000 H   0  0  0  0  0  0  0  0  0  0  0  0
    4.3842    4.8211    0.0000 H   0  0  0  0  0  0  0  0  0  0  0  0
   -0.1511    4.3529    0.0000 H   0  0  0  0  0  0  0  0  0  0  0  0
    1.8997    1.5610    0.0000 H   0  0  0  0  0  0  0  0  0  0  0  0
   -0.4142    3.4351    0.0000 H   0  0  0  0  0  0  0  0  0  0  0  0
    2.7760    0.0000    0.0000 H   0  0  0  0  0  0  0  0  0  0  0  0
    1.3384   -2.3792    0.0000 H   0  0  0  0  0  0  0  0  0  0  0  0
   -2.5142    2.9888    0.0000 H   0  0  0  0  0  0  0  0  0  0  0  0
   -5.0723    1.1634    0.0000 H   0  0  0  0  0  0  0  0  0  0  0  0
   -4.8283   -1.6528    0.0000 H   0  0  0  0  0  0  0  0  0  0  0  0
   -2.3313   -3.0000    0.0000 H   0  0  0  0  0  0  0  0  0  0  0  0
    3.5650    2.3452    0.0000 H   0  0  0  0  0  0  0  0  0  0  0  0
    4.8257    2.7168    0.0000 H   0  0  0  0  0  0  0  0  0  0  0  0
    7.6599    4.8455    0.0000 H   0  0  0  0  0  0  0  0  0  0  0  0
    6.0819    2.3204    0.0000 H   0  0  0  0  0  0  0  0  0  0  0  0
    7.3396    0.7454    0.0000 H   0  0  0  0  0  0  0  0  0  0  0  0
   10.1927   -0.1817    0.0000 H   0  0  0  0  0  0  0  0  0  0  0  0
   11.7984    4.7602    0.0000 H   0  0  0  0  0  0  0  0  0  0  0  0
    8.9453    5.6872    0.0000 H   0  0  0  0  0  0  0  0  0  0  0  0
   13.5369    2.8294    0.0000 H   0  0  0  0  0  0  0  0  0  0  0  0
    5.0486    6.8944    0.0000 H   0  0  0  0  0  0  0  0  0  0  0  0
    7.9697    8.7808    0.0000 H   0  0  0  0  0  0  0  0  0  0  0  0
    9.0430    6.6744    0.0000 H   0  0  0  0  0  0  0  0  0  0  0  0
    6.3241    7.9423    0.0000 H   0  0  0  0  0  0  0  0  0  0  0  0
    4.8560    5.2958    0.0000 H   0  0  0  0  0  0  0  0  0  0  0  0
    5.4284    8.2407    0.0000 H   0  0  0  0  0  0  0  0  0  0  0  0
    9.1560    7.0222    0.0000 H   0  0  0  0  0  0  0  0  0  0  0  0
    7.5528    8.8027    0.0000 H   0  0  0  0  0  0  0  0  0  0  0  0
   -2.9841    8.3969    0.0000 H   0  0  0  0  0  0  0  0  0  0  0  0
   -3.7338    5.4979    0.0000 H   0  0  0  0  0  0  0  0  0  0  0  0
   -3.8940    9.8589    0.0000 H   0  0  0  0  0  0  0  0  0  0  0  0
   -6.7472   10.7860    0.0000 H   0  0  0  0  0  0  0  0  0  0  0  0
   -8.9766    8.7786    0.0000 H   0  0  0  0  0  0  0  0  0  0  0  0
   -8.3529    5.8442    0.0000 H   0  0  0  0  0  0  0  0  0  0  0  0
   -5.4997    4.9171    0.0000 H   0  0  0  0  0  0  0  0  0  0  0  0
    4.9696   -0.5137    0.0000 H   0  0  0  0  0  0  0  0  0  0  0  0
    4.5270    2.4478    0.0000 H   0  0  0  0  0  0  0  0  0  0  0  0
    5.8177    2.7107    0.0000 H   0  0  0  0  0  0  0  0  0  0  0  0
    9.2406    1.9162    0.0000 H   0  0  0  0  0  0  0  0  0  0  0  0
    8.2617    0.1861    0.0000 H   0  0  0  0  0  0  0  0  0  0  0  0
    7.8258    3.1034    0.0000 H   0  0  0  0  0  0  0  0  0  0  0  0
    6.9298   -1.6420    0.0000 H   0  0  0  0  0  0  0  0  0  0  0  0
    8.1123   -0.0441    0.0000 H   0  0  0  0  0  0  0  0  0  0  0  0
    5.1997   -0.6632    0.0000 H   0  0  0  0  0  0  0  0  0  0  0  0
   -2.4348   -8.7943    0.0000 H   0  0  0  0  0  0  0  0  0  0  0  0
   -1.6320   -6.3234    0.0000 H   0  0  0  0  0  0  0  0  0  0  0  0
  1  2  1  0
  2  3  2  3
  3  4  1  0
  4  5  1  0
  5  6  1  0
  6  7  1  0
  7  8  1  0
  8  9  1  0
  9 10  2  0
  9 11  1  0
 11 12  1  0
 12 13  1  0
 13 14  2  0
 13 15  1  0
 12 16  1  0
 16 17  1  0
 17 18  2  0
 18 19  1  0
 19 20  2  0
 20 21  1  0
 21 22  2  0
  8 23  1  0
 23 24  1  0
 24 25  2  0
 24 26  1  0
 26 27  1  0
 27 28  1  0
 28 29  2  0
 28 30  1  0
 30 31  1  0
 31 32  1  0
 32 33  2  0
 32 34  1  0
 34 35  1  0
 35 36  1  0
 36 37  2  0
 36 38  1  0
 38 39  1  0
 39 40  1  0
 39 41  1  0
 38 42  1  0
 42 43  1  0
 43 44  2  0
 43 45  1  0
 45 46  1  0
 46 47  1  0
 47 48  2  0
 47 49  1  0
 49 50  1  0
 50 51  1  0
 51 52  2  0
 52 53  1  0
 53 54  1  0
 54 55  2  0
 55 56  1  0
 56 57  2  0
 57 58  1  0
 58 59  2  0
 49 60  1  0
 60 61  1  0
 61 62  2  0
 61 63  1  0
 63 64  1  0
 64 65  1  0
 65 66  2  0
 66 67  1  0
 67 68  2  0
 68 69  1  0
 69 70  2  0
 68 71  1  0
 63 72  1  0
 72 73  1  0
 73 74  2  0
 73 75  1  0
 45 76  1  0
 76 77  1  0
 77 78  2  0
 77 79  1  0
 34 80  1  0
 80 81  1  0
 81 82  2  0
 82 83  1  0
 83 84  2  0
 84 85  1  0
 85 86  2  0
 26 87  1  0
 87 88  1  0
 88 89  1  0
 88 90  1  0
  3 91  1  0
 22 17  1  0
 55 51  1  0
 70 65  1  0
 86 81  1  0
 59 54  1  0
  1 92  1  0
  1 93  1  0
  1 94  1  0
  4 95  1  0
  5 96  1  0
  5 97  1  0
  6 98  1  0
  6 99  1  0
  7100  1  0
  7101  1  0
  8102  1  6
 11103  1  0
 12104  1  6
 15105  1  0
 15106  1  0
 16107  1  0
 16108  1  0
 18109  1  0
 19110  1  0
 20111  1  0
 21112  1  0
 22113  1  0
 23114  1  0
 26115  1  6
 27116  1  0
 30117  1  0
 31118  1  0
 34119  1  1
 35120  1  0
 38121  1  1
 39122  1  1
 40123  1  0
 41124  1  0
 41125  1  0
 41126  1  0
 42127  1  0
 45128  1  1
 46129  1  0
 49130  1  1
 50131  1  0
 50132  1  0
 52133  1  0
 53134  1  0
 56135  1  0
 57136  1  0
 58137  1  0
 59138  1  0
 60139  1  0
 63140  1  1
 64141  1  0
 64142  1  0
 66143  1  0
 67144  1  0
 69145  1  0
 70146  1  0
 71147  1  0
 72148  1  0
 75149  1  0
 75150  1  0
 75151  1  0
 76152  1  0
 76153  1  0
 79154  1  0
 79155  1  0
 80156  1  0
 80157  1  0
 82158  1  0
 83159  1  0
 84160  1  0
 85161  1  0
 86162  1  0
 87163  1  0
 87164  1  0
 88165  1  0
 89166  1  0
 89167  1  0
 89168  1  0
 90169  1  0
 90170  1  0
 90171  1  0
 91172  1  0
 91173  1  0
M  END
>  <Ligand ID>  (1) 
LIG0005337

>  <Ligand>  (1) 
CHEMBL3314229

>  <SMILES>  (1) 
CN=C(NCCC[C@@H](C(=O)N[C@H](C(=O)N)Cc1ccccc1)NC(=O)[C@@H](NC(=O)NNC(=O)[C@@H](NC(=O)[C@H]([C@H](O)C)NC(=O)[C@@H](NC(=O)[C@@H](Cc1c[nH]c2c1cccc2)NC(=O)[C@@H](Cc1ccc(cc1)O)NC(=O)C)CC(=O)N)Cc1ccccc1)CC(C)C)N

>  <CID>  (1) 
118707497.0

>  <ChEMBL ID>  (1) 
nan

>  <InChiKey>  (1) 
YBPFGXOEWSSHEJ-YHWWVESDSA-N

>  <InChi>  (1) 
InChI=1S/C62H82N16O13/c1-34(2)27-46(55(85)70-44(21-14-26-67-61(65)66-5)54(84)71-45(53(64)83)28-37-15-8-6-9-16-37)75-62(91)78-77-59(89)48(29-38-17-10-7-11-18-38)74-60(90)52(35(3)79)76-58(88)50(32-51(63)82)73-57(87)49(31-40-33-68-43-20-13-12-19-42(40)43)72-56(86)47(69-36(4)80)30-39-22-24-41(81)25-23-39/h6-13,15-20,22-25,33-35,44-50,52,68,79,81H,14,21,26-32H2,1-5H3,(H2,63,82)(H2,64,83)(H,69,80)(H,70,85)(H,71,84)(H,72,86)(H,73,87)(H,74,90)(H,76,88)(H,77,89)(H3,65,66,67)(H2,75,78,91)/t35-,44+,45+,46+,47-,48+,49-,50+,52+/m1/s1

>  <IUPAC Name>  (1) 
(2S)-2-[[(2R)-2-[[(2R)-2-acetamido-3-(4-hydroxyphenyl)propanoyl]amino]-3-(1H-indol-3-yl)propanoyl]amino]-N-[(2S,3R)-1-[[(2S)-1-[2-[[(2S)-1-[[(2S)-1-[[(2S)-1-amino-1-oxo-3-phenylpropan-2-yl]amino]-5-[(N'-methylcarbamimidoyl)amino]-1-oxopentan-2-yl]amino]-4-methyl-1-oxopentan-2-yl]carbamoyl]hydrazinyl]-1-oxo-3-phenylpropan-2-yl]amino]-3-hydroxy-1-oxobutan-2-yl]butanediamide

$$$$
