
     RDKit          3D

114118  0  0  0  0  0  0  0  0999 V2000
    3.7901    2.4092    0.8469 O   0  0  0  0  0  0  0  0  0  0  0  0
    3.6931    1.5494   -0.0621 C   0  0  0  0  0  0  0  0  0  0  0  0
    2.6162    1.7784   -1.0041 N   0  0  0  0  0  0  0  0  0  0  0  0
    1.7891    2.9263   -0.7927 C   0  0  2  0  0  0  0  0  0  0  0  0
    0.3639    2.7411   -1.1630 C   0  0  0  0  0  0  0  0  0  0  0  0
   -0.4167    3.7257   -0.9212 O   0  0  0  0  0  0  0  0  0  0  0  0
   -0.0891    1.5352   -1.7543 N   0  0  0  0  0  0  0  0  0  0  0  0
   -1.4473    1.2676   -2.1643 C   0  0  2  0  0  0  0  0  0  0  0  0
   -1.9831    0.0510   -1.5035 C   0  0  0  0  0  0  0  0  0  0  0  0
   -1.2435   -0.4363   -0.5842 O   0  0  0  0  0  0  0  0  0  0  0  0
   -3.2275   -0.5377   -1.8673 N   0  0  0  0  0  0  0  0  0  0  0  0
   -3.7494   -1.7162   -1.2407 C   0  0  2  0  0  0  0  0  0  0  0  0
   -3.7884   -1.7203    0.2273 C   0  0  0  0  0  0  0  0  0  0  0  0
   -4.0082   -2.8632    0.7708 O   0  0  0  0  0  0  0  0  0  0  0  0
   -3.6214   -0.6375    1.0930 N   0  0  0  0  0  0  0  0  0  0  0  0
   -3.7003   -0.9378    2.5410 C   0  0  2  0  0  0  0  0  0  0  0  0
   -5.1516   -0.7257    2.8528 C   0  0  0  0  0  0  0  0  0  0  0  0
   -5.8321   -0.1783    1.9374 O   0  0  0  0  0  0  0  0  0  0  0  0
   -5.7599   -1.0998    4.0604 N   0  0  0  0  0  0  0  0  0  0  0  0
   -2.8199   -0.0531    3.3314 C   0  0  0  0  0  0  0  0  0  0  0  0
   -3.1259    1.3806    3.2162 C   0  0  0  0  0  0  0  0  0  0  0  0
   -2.5291    2.2041    2.2573 C   0  0  0  0  0  0  0  0  0  0  0  0
   -3.0496    3.4529    2.3563 N   0  0  0  0  0  0  0  0  0  0  0  0
   -3.9704    3.4815    3.3512 C   0  0  0  0  0  0  0  0  0  0  0  0
   -4.0096    2.1930    3.8788 C   0  0  0  0  0  0  0  0  0  0  0  0
   -4.8686    1.9881    4.9240 C   0  0  0  0  0  0  0  0  0  0  0  0
   -5.6632    2.9615    5.4469 C   0  0  0  0  0  0  0  0  0  0  0  0
   -5.6408    4.2586    4.9304 C   0  0  0  0  0  0  0  0  0  0  0  0
   -4.7812    4.4957    3.8770 C   0  0  0  0  0  0  0  0  0  0  0  0
   -3.2429   -3.0193   -1.7401 C   0  0  0  0  0  0  0  0  0  0  0  0
   -1.7779   -3.2575   -1.6381 C   0  0  0  0  0  0  0  0  0  0  0  0
   -1.4972   -4.6625   -2.2056 C   0  0  0  0  0  0  0  0  0  0  0  0
   -2.1728   -5.6939   -1.4842 N   0  0  0  0  0  0  0  0  0  0  0  0
   -1.7739   -6.1375   -0.3343 C   0  0  0  0  0  0  0  0  0  0  0  0
   -0.5869   -5.5200    0.1900 N   0  0  0  0  0  0  0  0  0  0  0  0
   -2.4700   -7.1634    0.3501 N   0  0  0  0  0  0  0  0  0  0  0  0
   -1.5681    1.2313   -3.6801 C   0  0  0  0  0  0  0  0  0  0  0  0
   -0.7381    0.2023   -4.3104 C   0  0  0  0  0  0  0  0  0  0  0  0
    0.5839    0.5079   -4.6546 C   0  0  0  0  0  0  0  0  0  0  0  0
    1.3489   -0.4760   -5.2419 C   0  0  0  0  0  0  0  0  0  0  0  0
    0.9118   -1.7437   -5.5178 C   0  0  0  0  0  0  0  0  0  0  0  0
   -0.4019   -2.0439   -5.1745 C   0  0  0  0  0  0  0  0  0  0  0  0
   -1.1897   -1.0861   -4.5886 C   0  0  0  0  0  0  0  0  0  0  0  0
    2.3613    4.1495   -1.5262 C   0  0  0  0  0  0  0  0  0  0  0  0
    2.4401    3.9529   -2.9892 C   0  0  0  0  0  0  0  0  0  0  0  0
    3.5097    3.3864   -3.6435 C   0  0  0  0  0  0  0  0  0  0  0  0
    3.4449    3.2900   -5.0253 C   0  0  0  0  0  0  0  0  0  0  0  0
    2.3756    3.7281   -5.7687 C   0  0  0  0  0  0  0  0  0  0  0  0
    1.3209    4.2898   -5.0876 C   0  0  0  0  0  0  0  0  0  0  0  0
    1.3271    4.4126   -3.7175 C   0  0  0  0  0  0  0  0  0  0  0  0
    2.2696    3.6253   -7.4979 Cl  0  0  0  0  0  0  0  0  0  0  0  0
    4.5491    0.3798   -0.2437 C   0  0  0  0  0  0  0  0  0  0  0  0
    5.7942    0.4914    0.5381 C   0  0  0  0  0  0  0  0  0  0  0  0
    5.7288    0.6185    2.0095 C   0  0  0  0  0  0  0  0  0  0  0  0
    5.1019   -0.4897    2.7342 C   0  0  0  0  0  0  0  0  0  0  0  0
    3.9044   -0.7923    2.4355 O   0  0  0  0  0  0  0  0  0  0  0  0
    5.7308   -1.2852    3.7751 C   0  0  0  0  0  0  0  0  0  0  0  0
    4.9741   -2.2639    4.4045 C   0  0  0  0  0  0  0  0  0  0  0  0
    5.5491   -3.0583    5.3954 C   0  0  0  0  0  0  0  0  0  0  0  0
    6.8739   -2.8940    5.7736 C   0  0  0  0  0  0  0  0  0  0  0  0
    7.6353   -1.9238    5.1543 C   0  0  0  0  0  0  0  0  0  0  0  0
    7.0447   -1.1382    4.1654 C   0  0  0  0  0  0  0  0  0  0  0  0
    2.5294    1.0851   -1.7737 H   0  0  0  0  0  0  0  0  0  0  0  0
    1.8340    3.2332    0.2702 H   0  0  0  0  0  0  0  0  0  0  0  0
    0.5909    0.7292   -1.9282 H   0  0  0  0  0  0  0  0  0  0  0  0
   -2.0813    2.1155   -1.8504 H   0  0  0  0  0  0  0  0  0  0  0  0
   -3.7328   -0.0208   -2.6540 H   0  0  0  0  0  0  0  0  0  0  0  0
   -4.8720   -1.6835   -1.5539 H   0  0  0  0  0  0  0  0  0  0  0  0
   -3.4623    0.3176    0.7298 H   0  0  0  0  0  0  0  0  0  0  0  0
   -3.4704   -2.0169    2.6720 H   0  0  0  0  0  0  0  0  0  0  0  0
   -6.8027   -1.1510    4.1000 H   0  0  0  0  0  0  0  0  0  0  0  0
   -5.2434   -1.3304    4.9297 H   0  0  0  0  0  0  0  0  0  0  0  0
   -1.7300   -0.2226    3.1515 H   0  0  0  0  0  0  0  0  0  0  0  0
   -2.9544   -0.3061    4.4310 H   0  0  0  0  0  0  0  0  0  0  0  0
   -1.7731    1.9466    1.5301 H   0  0  0  0  0  0  0  0  0  0  0  0
   -2.8336    4.3064    1.8008 H   0  0  0  0  0  0  0  0  0  0  0  0
   -4.8934    1.0119    5.3683 H   0  0  0  0  0  0  0  0  0  0  0  0
   -6.3399    2.7722    6.2798 H   0  0  0  0  0  0  0  0  0  0  0  0
   -6.2677    5.0362    5.3333 H   0  0  0  0  0  0  0  0  0  0  0  0
   -4.7491    5.5042    3.4579 H   0  0  0  0  0  0  0  0  0  0  0  0
   -3.5936   -3.1911   -2.7954 H   0  0  0  0  0  0  0  0  0  0  0  0
   -3.7390   -3.8682   -1.1807 H   0  0  0  0  0  0  0  0  0  0  0  0
   -1.1289   -2.5771   -2.1697 H   0  0  0  0  0  0  0  0  0  0  0  0
   -1.4647   -3.3244   -0.5551 H   0  0  0  0  0  0  0  0  0  0  0  0
   -0.4101   -4.8205   -2.1892 H   0  0  0  0  0  0  0  0  0  0  0  0
   -1.8029   -4.6726   -3.2738 H   0  0  0  0  0  0  0  0  0  0  0  0
   -0.7083   -4.9995    1.0850 H   0  0  0  0  0  0  0  0  0  0  0  0
    0.3325   -5.5844   -0.2890 H   0  0  0  0  0  0  0  0  0  0  0  0
   -2.4498   -7.1231    1.4051 H   0  0  0  0  0  0  0  0  0  0  0  0
   -2.9583   -7.8950   -0.1786 H   0  0  0  0  0  0  0  0  0  0  0  0
   -1.1888    2.2309   -4.0262 H   0  0  0  0  0  0  0  0  0  0  0  0
   -2.6271    1.1491   -3.9280 H   0  0  0  0  0  0  0  0  0  0  0  0
    0.9571    1.4921   -4.4532 H   0  0  0  0  0  0  0  0  0  0  0  0
    2.3892   -0.2449   -5.5168 H   0  0  0  0  0  0  0  0  0  0  0  0
    1.5327   -2.5014   -5.9785 H   0  0  0  0  0  0  0  0  0  0  0  0
   -0.7455   -3.0454   -5.3909 H   0  0  0  0  0  0  0  0  0  0  0  0
   -2.2274   -1.3614   -4.3306 H   0  0  0  0  0  0  0  0  0  0  0  0
    3.3841    4.3768   -1.1171 H   0  0  0  0  0  0  0  0  0  0  0  0
    1.7178    5.0039   -1.2448 H   0  0  0  0  0  0  0  0  0  0  0  0
    4.3381    3.0490   -3.0639 H   0  0  0  0  0  0  0  0  0  0  0  0
    4.2818    2.8442   -5.5706 H   0  0  0  0  0  0  0  0  0  0  0  0
    0.4388    4.6593   -5.6057 H   0  0  0  0  0  0  0  0  0  0  0  0
    0.4808    4.8646   -3.2262 H   0  0  0  0  0  0  0  0  0  0  0  0
    4.8521    0.2687   -1.3281 H   0  0  0  0  0  0  0  0  0  0  0  0
    3.9968   -0.5839   -0.0412 H   0  0  0  0  0  0  0  0  0  0  0  0
    6.3168    1.4323    0.1657 H   0  0  0  0  0  0  0  0  0  0  0  0
    6.5343   -0.3111    0.2818 H   0  0  0  0  0  0  0  0  0  0  0  0
    6.7882    0.7142    2.3654 H   0  0  0  0  0  0  0  0  0  0  0  0
    5.2468    1.5526    2.3921 H   0  0  0  0  0  0  0  0  0  0  0  0
    3.9436   -2.4630    4.1864 H   0  0  0  0  0  0  0  0  0  0  0  0
    4.9547   -3.8372    5.9019 H   0  0  0  0  0  0  0  0  0  0  0  0
    7.3262   -3.5012    6.5340 H   0  0  0  0  0  0  0  0  0  0  0  0
    8.6719   -1.7668    5.4258 H   0  0  0  0  0  0  0  0  0  0  0  0
    7.6758   -0.4031    3.7189 H   0  0  0  0  0  0  0  0  0  0  0  0
  1  2  2  0
  2  3  1  0
  3  4  1  0
  4  5  1  0
  5  6  2  0
  5  7  1  0
  7  8  1  0
  8  9  1  0
  9 10  2  0
  9 11  1  0
 11 12  1  0
 12 13  1  0
 13 14  2  0
 13 15  1  0
 15 16  1  0
 16 17  1  0
 17 18  2  0
 17 19  1  0
 16 20  1  0
 20 21  1  0
 21 22  2  0
 22 23  1  0
 23 24  1  0
 24 25  2  0
 25 26  1  0
 26 27  2  0
 27 28  1  0
 28 29  2  0
 12 30  1  0
 30 31  1  0
 31 32  1  0
 32 33  1  0
 33 34  2  3
 34 35  1  0
 34 36  1  0
  8 37  1  0
 37 38  1  0
 38 39  2  0
 39 40  1  0
 40 41  2  0
 41 42  1  0
 42 43  2  0
  4 44  1  0
 44 45  1  0
 45 46  2  0
 46 47  1  0
 47 48  2  0
 48 49  1  0
 49 50  2  0
 48 51  1  0
  2 52  1  0
 52 53  1  0
 53 54  1  0
 54 55  1  0
 55 56  2  0
 55 57  1  0
 57 58  2  0
 58 59  1  0
 59 60  2  0
 60 61  1  0
 61 62  2  0
 25 21  1  0
 43 38  1  0
 50 45  1  0
 62 57  1  0
 29 24  1  0
  3 63  1  0
  4 64  1  1
  7 65  1  0
  8 66  1  1
 11 67  1  0
 12 68  1  6
 15 69  1  0
 16 70  1  6
 19 71  1  0
 19 72  1  0
 20 73  1  0
 20 74  1  0
 22 75  1  0
 23 76  1  0
 26 77  1  0
 27 78  1  0
 28 79  1  0
 29 80  1  0
 30 81  1  0
 30 82  1  0
 31 83  1  0
 31 84  1  0
 32 85  1  0
 32 86  1  0
 35 87  1  0
 35 88  1  0
 36 89  1  0
 36 90  1  0
 37 91  1  0
 37 92  1  0
 39 93  1  0
 40 94  1  0
 41 95  1  0
 42 96  1  0
 43 97  1  0
 44 98  1  0
 44 99  1  0
 46100  1  0
 47101  1  0
 49102  1  0
 50103  1  0
 52104  1  0
 52105  1  0
 53106  1  0
 53107  1  0
 54108  1  0
 54109  1  0
 58110  1  0
 59111  1  0
 60112  1  0
 61113  1  0
 62114  1  0
M  END
>  <Ligand ID>  (1) 
LIG0002630

>  <Ligand>  (1) 
CHEMBL365019

>  <SMILES>  (1) 
O=C(N[C@H](C(=O)N[C@H](C(=O)N[C@H](C(=O)N[C@H](C(=O)N)Cc1c[nH]c2c1cccc2)CCCN=C(N)N)Cc1ccccc1)Cc1ccc(cc1)Cl)CCCC(=O)c1ccccc1

>  <CID>  (1) 
44394784.0

>  <ChEMBL ID>  (1) 
nan

>  <InChiKey>  (1) 
FGMYPLANDWCIJC-GTKRZRNESA-N

>  <InChi>  (1) 
InChI=1S/C46H52ClN9O6/c47-33-22-20-30(21-23-33)26-38(53-41(58)19-9-18-40(57)31-13-5-2-6-14-31)44(61)56-39(25-29-11-3-1-4-12-29)45(62)54-36(17-10-24-51-46(49)50)43(60)55-37(42(48)59)27-32-28-52-35-16-8-7-15-34(32)35/h1-8,11-16,20-23,28,36-39,52H,9-10,17-19,24-27H2,(H2,48,59)(H,53,58)(H,54,62)(H,55,60)(H,56,61)(H4,49,50,51)/t36-,37-,38-,39-/m0/s1

>  <IUPAC Name>  (1) 
(2S)-N-[(2S)-1-amino-3-(1H-indol-3-yl)-1-oxopropan-2-yl]-2-[[(2S)-2-[[(2S)-3-(4-chlorophenyl)-2-[(5-oxo-5-phenylpentanoyl)amino]propanoyl]amino]-3-phenylpropanoyl]amino]-5-(diaminomethylideneamino)pentanamide

$$$$
