
     RDKit          3D

 51 54  0  0  0  0  0  0  0  0999 V2000
    0.4572    2.0039    1.9458 O   0  0  0  0  0  0  0  0  0  0  0  0
    0.5964    0.9131    1.3449 C   0  0  0  0  0  0  0  0  0  0  0  0
   -0.4909    0.3220    0.5775 N   0  0  0  0  0  0  0  0  0  0  0  0
   -0.2239   -0.9305   -0.0589 C   0  0  0  0  0  0  0  0  0  0  0  0
   -0.9483   -2.0963    0.5693 C   0  0  0  0  0  0  0  0  0  0  0  0
   -1.7165   -2.9742   -0.3406 C   0  0  0  0  0  0  0  0  0  0  0  0
   -1.1540   -3.1766   -1.7089 C   0  0  0  0  0  0  0  0  0  0  0  0
    0.1218   -2.3989   -1.9345 C   0  0  0  0  0  0  0  0  0  0  0  0
   -0.2317   -0.9498   -1.5488 C   0  0  0  0  0  0  0  0  0  0  0  0
   -1.7017    1.0661    0.5519 C   0  0  0  0  0  0  0  0  0  0  0  0
   -2.9778    0.5189    0.9630 C   0  0  0  0  0  0  0  0  0  0  0  0
   -4.0217    1.6386    0.9839 C   0  0  0  0  0  0  0  0  0  0  0  0
   -4.0447    2.4733   -0.2518 C   0  0  0  0  0  0  0  0  0  0  0  0
   -2.6490    3.0336   -0.5325 C   0  0  0  0  0  0  0  0  0  0  0  0
   -1.8200    1.7677   -0.8209 C   0  0  0  0  0  0  0  0  0  0  0  0
    1.9000    0.2660    1.4532 C   0  0  0  0  0  0  0  0  0  0  0  0
    2.2966   -0.7949    2.2347 C   0  0  0  0  0  0  0  0  0  0  0  0
    3.5663   -0.9852    1.9760 O   0  0  0  0  0  0  0  0  0  0  0  0
    3.9926   -0.1169    1.0882 C   0  0  0  0  0  0  0  0  0  0  0  0
    2.9665    0.6528    0.7676 N   0  0  0  0  0  0  0  0  0  0  0  0
    5.3784    0.0047    0.5222 C   0  0  0  0  0  0  0  0  0  0  0  0
    5.9181    1.3638    0.2837 C   0  0  0  0  0  0  0  0  0  0  0  0
    5.5670    0.4546   -0.8789 C   0  0  0  0  0  0  0  0  0  0  0  0
    0.8665   -1.1742    0.1761 H   0  0  0  0  0  0  0  0  0  0  0  0
   -0.2651   -2.7549    1.1868 H   0  0  0  0  0  0  0  0  0  0  0  0
   -1.6461   -1.7052    1.3567 H   0  0  0  0  0  0  0  0  0  0  0  0
   -2.8196   -2.7231   -0.3759 H   0  0  0  0  0  0  0  0  0  0  0  0
   -1.7589   -4.0112    0.1123 H   0  0  0  0  0  0  0  0  0  0  0  0
   -1.8904   -2.7458   -2.4463 H   0  0  0  0  0  0  0  0  0  0  0  0
   -1.0651   -4.2420   -2.0205 H   0  0  0  0  0  0  0  0  0  0  0  0
    0.3956   -2.4942   -2.9955 H   0  0  0  0  0  0  0  0  0  0  0  0
    0.9189   -2.6890   -1.2365 H   0  0  0  0  0  0  0  0  0  0  0  0
    0.4889   -0.2355   -1.9580 H   0  0  0  0  0  0  0  0  0  0  0  0
   -1.2029   -0.7716   -2.0381 H   0  0  0  0  0  0  0  0  0  0  0  0
   -1.5027    1.9668    1.2270 H   0  0  0  0  0  0  0  0  0  0  0  0
   -3.4328   -0.2541    0.3246 H   0  0  0  0  0  0  0  0  0  0  0  0
   -2.9883    0.1379    2.0065 H   0  0  0  0  0  0  0  0  0  0  0  0
   -3.8567    2.2686    1.8652 H   0  0  0  0  0  0  0  0  0  0  0  0
   -5.0511    1.1641    1.0549 H   0  0  0  0  0  0  0  0  0  0  0  0
   -4.3046    1.8799   -1.1622 H   0  0  0  0  0  0  0  0  0  0  0  0
   -4.6851    3.3389   -0.0682 H   0  0  0  0  0  0  0  0  0  0  0  0
   -2.6467    3.6736   -1.4061 H   0  0  0  0  0  0  0  0  0  0  0  0
   -2.2131    3.5209    0.3880 H   0  0  0  0  0  0  0  0  0  0  0  0
   -0.8281    2.0590   -1.2092 H   0  0  0  0  0  0  0  0  0  0  0  0
   -2.4140    1.2011   -1.5324 H   0  0  0  0  0  0  0  0  0  0  0  0
    1.6413   -1.3274    2.9105 H   0  0  0  0  0  0  0  0  0  0  0  0
    6.1147   -0.7336    0.8891 H   0  0  0  0  0  0  0  0  0  0  0  0
    7.0100    1.5963    0.3942 H   0  0  0  0  0  0  0  0  0  0  0  0
    5.2817    2.2709    0.3247 H   0  0  0  0  0  0  0  0  0  0  0  0
    4.6562    0.6518   -1.4723 H   0  0  0  0  0  0  0  0  0  0  0  0
    6.4172    0.0763   -1.4817 H   0  0  0  0  0  0  0  0  0  0  0  0
  1  2  2  0
  2  3  1  0
  3  4  1  0
  4  5  1  0
  5  6  1  0
  6  7  1  0
  7  8  1  0
  8  9  1  0
  3 10  1  0
 10 11  1  0
 11 12  1  0
 12 13  1  0
 13 14  1  0
 14 15  1  0
  2 16  1  0
 16 17  2  0
 17 18  1  0
 18 19  1  0
 19 20  2  0
 19 21  1  0
 21 22  1  0
 22 23  1  0
  9  4  1  0
 15 10  1  0
 20 16  1  0
 23 21  1  0
  4 24  1  0
  5 25  1  0
  5 26  1  0
  6 27  1  0
  6 28  1  0
  7 29  1  0
  7 30  1  0
  8 31  1  0
  8 32  1  0
  9 33  1  0
  9 34  1  0
 10 35  1  0
 11 36  1  0
 11 37  1  0
 12 38  1  0
 12 39  1  0
 13 40  1  0
 13 41  1  0
 14 42  1  0
 14 43  1  0
 15 44  1  0
 15 45  1  0
 17 46  1  0
 21 47  1  0
 22 48  1  0
 22 49  1  0
 23 50  1  0
 23 51  1  0
M  END
>  <Ligand ID>  (1) 
LIG0001362

>  <Ligand>  (1) 
CHEMBL1989169

>  <SMILES>  (1) 
O=C(N(C1CCCCC1)C1CCCCC1)c1coc(n1)C1CC1

>  <CID>  (1) 
25110521.0

>  <ChEMBL ID>  (1) 
nan

>  <InChiKey>  (1) 
XXKUOUAAFYMOTQ-UHFFFAOYSA-N

>  <InChi>  (1) 
InChI=1S/C19H28N2O2/c22-19(17-13-23-18(20-17)14-11-12-14)21(15-7-3-1-4-8-15)16-9-5-2-6-10-16/h13-16H,1-12H2

>  <IUPAC Name>  (1) 
N,N-dicyclohexyl-2-cyclopropyl-1,3-oxazole-4-carboxamide

$$$$
