
     RDKit          3D

 35 38  0  0  0  0  0  0  0  0999 V2000
    5.0865    0.1149    0.8142 O   0  0  0  0  0  0  0  0  0  0  0  0
    3.7566    0.1867    0.4683 C   0  0  0  0  0  0  0  0  0  0  0  0
    3.3929    0.1280   -0.8758 C   0  0  0  0  0  0  0  0  0  0  0  0
    2.0586    0.2027   -1.1827 C   0  0  0  0  0  0  0  0  0  0  0  0
    1.5625    0.1544   -2.4898 O   0  0  0  0  0  0  0  0  0  0  0  0
    0.3766   -0.5866   -2.8108 C   0  0  0  0  0  0  0  0  0  0  0  0
   -0.4671   -0.8255   -1.5941 C   0  0  1  0  0  0  0  0  0  0  0  0
   -0.3159    0.4000   -0.7104 C   0  0  2  0  0  0  0  0  0  0  0  0
    1.0697    0.3347   -0.1927 C   0  0  0  0  0  0  0  0  0  0  0  0
    1.4257    0.3916    1.1201 C   0  0  0  0  0  0  0  0  0  0  0  0
    2.7621    0.3174    1.4371 C   0  0  0  0  0  0  0  0  0  0  0  0
    3.2097    0.3690    2.7649 O   0  0  0  0  0  0  0  0  0  0  0  0
   -1.3676    0.5813    0.2686 C   0  0  0  0  0  0  0  0  0  0  0  0
   -1.3733    1.6106    1.1546 C   0  0  0  0  0  0  0  0  0  0  0  0
   -2.4135    1.7464    2.0812 C   0  0  0  0  0  0  0  0  0  0  0  0
   -3.4616    0.8523    2.1316 C   0  0  0  0  0  0  0  0  0  0  0  0
   -3.4564   -0.1993    1.2262 C   0  0  0  0  0  0  0  0  0  0  0  0
   -2.4211   -0.3323    0.3057 C   0  0  0  0  0  0  0  0  0  0  0  0
   -2.4817   -1.4871   -0.6521 C   0  0  0  0  0  0  0  0  0  0  0  0
   -1.8667   -0.9982   -1.8827 N   0  0  0  0  0  0  0  0  0  0  0  0
    5.7539   -0.2317    0.1653 H   0  0  0  0  0  0  0  0  0  0  0  0
    4.1189    0.0269   -1.6716 H   0  0  0  0  0  0  0  0  0  0  0  0
    0.7076   -1.5441   -3.2762 H   0  0  0  0  0  0  0  0  0  0  0  0
   -0.2235   -0.0535   -3.5686 H   0  0  0  0  0  0  0  0  0  0  0  0
   -0.0713   -1.7389   -1.0644 H   0  0  0  0  0  0  0  0  0  0  0  0
   -0.3081    1.2695   -1.4348 H   0  0  0  0  0  0  0  0  0  0  0  0
    0.6778    0.4869    1.8807 H   0  0  0  0  0  0  0  0  0  0  0  0
    3.3518   -0.4640    3.2978 H   0  0  0  0  0  0  0  0  0  0  0  0
   -0.6135    2.3597    1.1978 H   0  0  0  0  0  0  0  0  0  0  0  0
   -2.4128    2.5827    2.7972 H   0  0  0  0  0  0  0  0  0  0  0  0
   -4.2520    0.9821    2.8586 H   0  0  0  0  0  0  0  0  0  0  0  0
   -4.2761   -0.9037    1.2611 H   0  0  0  0  0  0  0  0  0  0  0  0
   -3.5520   -1.7385   -0.8519 H   0  0  0  0  0  0  0  0  0  0  0  0
   -1.9155   -2.3582   -0.2919 H   0  0  0  0  0  0  0  0  0  0  0  0
   -2.0613   -1.6362   -2.6802 H   0  0  0  0  0  0  0  0  0  0  0  0
  1  2  1  0
  2  3  2  0
  3  4  1  0
  4  5  1  0
  5  6  1  0
  6  7  1  0
  7  8  1  0
  8  9  1  0
  9 10  1  0
 10 11  2  0
 11 12  1  0
  8 13  1  0
 13 14  2  0
 14 15  1  0
 15 16  2  0
 16 17  1  0
 17 18  2  0
 18 19  1  0
 19 20  1  0
 11  2  1  0
 18 13  1  0
  9  4  2  0
 20  7  1  0
  1 21  1  0
  3 22  1  0
  6 23  1  0
  6 24  1  0
  7 25  1  1
  8 26  1  6
 10 27  1  0
 12 28  1  0
 14 29  1  0
 15 30  1  0
 16 31  1  0
 17 32  1  0
 19 33  1  0
 19 34  1  0
 20 35  1  0
M  END
>  <Ligand ID>  (1) 
LIG0002438

>  <Ligand>  (1) 
CHEMBL384046

>  <SMILES>  (1) 
Oc1cc2OC[C@H]3[C@H](c2cc1O)c1ccccc1CN3

>  <CID>  (1) 
24878061.0

>  <ChEMBL ID>  (1) 
nan

>  <InChiKey>  (1) 
QDUNOUQOKOYLCH-LRDDRELGSA-N

>  <InChi>  (1) 
InChI=1S/C16H15NO3/c18-13-5-11-15(6-14(13)19)20-8-12-16(11)10-4-2-1-3-9(10)7-17-12/h1-6,12,16-19H,7-8H2/t12-,16-/m0/s1

>  <IUPAC Name>  (1) 
(6aR,12bS)-6a,7,8,12b-tetrahydro-6H-chromeno[3,4-c]isoquinoline-2,3-diol

$$$$
