
     RDKit          3D

 36 37  0  0  0  0  0  0  0  0999 V2000
   -6.2546    1.3378    1.0601 O   0  0  0  0  0  0  0  0  0  0  0  0
   -5.4259    0.7638    0.1205 C   0  0  0  0  0  0  0  0  0  0  0  0
   -4.7488    1.5798   -0.6030 O   0  0  0  0  0  0  0  0  0  0  0  0
   -5.3603   -0.6782   -0.0010 C   0  0  0  0  0  0  0  0  0  0  0  0
   -4.4538   -1.3006   -0.9876 C   0  0  0  0  0  0  0  0  0  0  0  0
   -3.0405   -0.9707   -0.8120 C   0  0  0  0  0  0  0  0  0  0  0  0
   -2.3530   -1.6481    0.1789 C   0  0  0  0  0  0  0  0  0  0  0  0
   -1.0359   -1.3373    0.4655 C   0  0  0  0  0  0  0  0  0  0  0  0
   -0.3734   -0.3313   -0.2428 C   0  0  0  0  0  0  0  0  0  0  0  0
   -1.0423    0.3549   -1.2354 C   0  0  0  0  0  0  0  0  0  0  0  0
   -2.3643    0.0134   -1.4938 C   0  0  0  0  0  0  0  0  0  0  0  0
   -2.9344    0.6817   -2.5408 F   0  0  0  0  0  0  0  0  0  0  0  0
    0.9949   -0.0242    0.0679 C   0  0  0  0  0  0  0  0  0  0  0  0
    2.1384    0.2516    0.3182 C   0  0  0  0  0  0  0  0  0  0  0  0
    3.5036    0.5760    0.6412 C   0  0  0  0  0  0  0  0  0  0  0  0
    3.6903    1.4059    1.7258 C   0  0  0  0  0  0  0  0  0  0  0  0
    4.9632    1.7743    2.0962 C   0  0  0  0  0  0  0  0  0  0  0  0
    5.1705    2.5977    3.1511 F   0  0  0  0  0  0  0  0  0  0  0  0
    6.0282    1.2964    1.3649 C   0  0  0  0  0  0  0  0  0  0  0  0
    5.8489    0.4611    0.2725 C   0  0  0  0  0  0  0  0  0  0  0  0
    4.5775    0.0863   -0.1089 C   0  0  0  0  0  0  0  0  0  0  0  0
    4.3171   -0.8023   -1.2815 C   0  0  0  0  0  0  0  0  0  0  0  0
    3.6926   -1.9523   -0.8776 F   0  0  0  0  0  0  0  0  0  0  0  0
    3.5909   -0.1369   -2.2574 F   0  0  0  0  0  0  0  0  0  0  0  0
   -6.2109    2.3220    1.2578 H   0  0  0  0  0  0  0  0  0  0  0  0
   -5.0985   -1.1317    1.0100 H   0  0  0  0  0  0  0  0  0  0  0  0
   -6.4278   -1.0310   -0.2465 H   0  0  0  0  0  0  0  0  0  0  0  0
   -4.6448   -2.4078   -1.0818 H   0  0  0  0  0  0  0  0  0  0  0  0
   -4.7774   -0.9133   -2.0255 H   0  0  0  0  0  0  0  0  0  0  0  0
   -2.8005   -2.4231    0.7586 H   0  0  0  0  0  0  0  0  0  0  0  0
   -0.5263   -1.8823    1.2540 H   0  0  0  0  0  0  0  0  0  0  0  0
   -0.5712    1.1373   -1.8119 H   0  0  0  0  0  0  0  0  0  0  0  0
    2.8572    1.7791    2.3093 H   0  0  0  0  0  0  0  0  0  0  0  0
    7.0711    1.5434    1.6012 H   0  0  0  0  0  0  0  0  0  0  0  0
    6.6974    0.0802   -0.3062 H   0  0  0  0  0  0  0  0  0  0  0  0
    5.3028   -1.0718   -1.7397 H   0  0  0  0  0  0  0  0  0  0  0  0
  1  2  1  0
  2  3  2  0
  2  4  1  0
  4  5  1  0
  5  6  1  0
  6  7  2  0
  7  8  1  0
  8  9  2  0
  9 10  1  0
 10 11  2  0
 11 12  1  0
  9 13  1  0
 13 14  3  0
 14 15  1  0
 15 16  2  0
 16 17  1  0
 17 18  1  0
 17 19  2  0
 19 20  1  0
 20 21  2  0
 21 22  1  0
 22 23  1  0
 22 24  1  0
 11  6  1  0
 21 15  1  0
  1 25  1  0
  4 26  1  0
  4 27  1  0
  5 28  1  0
  5 29  1  0
  7 30  1  0
  8 31  1  0
 10 32  1  0
 16 33  1  0
 19 34  1  0
 20 35  1  0
 22 36  1  0
M  END
>  <Ligand ID>  (1) 
LIG0005784

>  <Ligand>  (1) 
CHEMBL2386364

>  <SMILES>  (1) 
OC(=O)CCc1ccc(cc1F)C#Cc1cc(F)ccc1C(F)F

>  <CID>  (1) 
66562488.0

>  <ChEMBL ID>  (1) 
nan

>  <InChiKey>  (1) 
NTIPATIJADYXAU-UHFFFAOYSA-N

>  <InChi>  (1) 
InChI=1S/C18H12F4O2/c19-14-6-7-15(18(21)22)13(10-14)4-2-11-1-3-12(16(20)9-11)5-8-17(23)24/h1,3,6-7,9-10,18H,5,8H2,(H,23,24)

>  <IUPAC Name>  (1) 
3-[4-[2-[2-(difluoromethyl)-5-fluorophenyl]ethynyl]-2-fluorophenyl]propanoic acid

$$$$
