
     RDKit          3D

 58 62  0  0  0  0  0  0  0  0999 V2000
   -5.7737   -4.9060   -2.0068 Cl  0  0  0  0  0  0  0  0  0  0  0  0
   -4.4342   -3.9399   -1.4236 C   0  0  0  0  0  0  0  0  0  0  0  0
   -4.2983   -3.6118   -0.0731 C   0  0  0  0  0  0  0  0  0  0  0  0
   -3.2222   -2.8459    0.3253 C   0  0  0  0  0  0  0  0  0  0  0  0
   -2.2816   -2.4043   -0.6084 C   0  0  0  0  0  0  0  0  0  0  0  0
   -2.4143   -2.7315   -1.9643 C   0  0  0  0  0  0  0  0  0  0  0  0
   -3.4981   -3.5018   -2.3608 C   0  0  0  0  0  0  0  0  0  0  0  0
   -1.1540   -1.6213   -0.2350 N   0  0  0  0  0  0  0  0  0  0  0  0
    0.0666   -2.1323   -0.1812 N   0  0  0  0  0  0  0  0  0  0  0  0
    0.9713   -1.1891    0.1980 C   0  0  0  0  0  0  0  0  0  0  0  0
    0.2748   -0.0251    0.3908 C   0  0  0  0  0  0  0  0  0  0  0  0
   -1.0613   -0.3364    0.1093 C   0  0  0  0  0  0  0  0  0  0  0  0
   -2.1050    0.7074    0.2324 C   0  0  0  0  0  0  0  0  0  0  0  0
   -3.2594    0.5503   -0.3791 C   0  0  0  0  0  0  0  0  0  0  0  0
   -4.3348    1.5610   -0.2924 C   0  0  0  0  0  0  0  0  0  0  0  0
   -5.6471    1.1665   -0.0764 C   0  0  0  0  0  0  0  0  0  0  0  0
   -6.6962    2.0593   -0.0047 C   0  0  0  0  0  0  0  0  0  0  0  0
   -6.4083    3.4141   -0.1580 C   0  0  0  0  0  0  0  0  0  0  0  0
   -5.0842    3.7972   -0.3748 C   0  0  0  0  0  0  0  0  0  0  0  0
   -4.1150    2.8710   -0.4326 N   0  0  0  0  0  0  0  0  0  0  0  0
   -7.6345    4.6464   -0.0884 Cl  0  0  0  0  0  0  0  0  0  0  0  0
   -1.7476    1.8658    1.0760 C   0  0  0  0  0  0  0  0  0  0  0  0
   -0.4108    2.3584    0.5734 C   0  0  0  0  0  0  0  0  0  0  0  0
    0.6815    1.3334    0.7862 C   0  0  0  0  0  0  0  0  0  0  0  0
    2.3825   -1.5030    0.3300 C   0  0  0  0  0  0  0  0  0  0  0  0
    2.7312   -2.6781   -0.0001 O   0  0  0  0  0  0  0  0  0  0  0  0
    3.3825   -0.6399    0.7825 N   0  0  0  0  0  0  0  0  0  0  0  0
    4.7651   -1.0734    0.8649 C   0  0  1  0  0  0  0  0  0  0  0  0
    5.6687   -0.2233    0.0303 C   0  0  0  0  0  0  0  0  0  0  0  0
    6.8521    0.2094    0.5790 C   0  0  0  0  0  0  0  0  0  0  0  0
    7.7004    0.9921   -0.1748 C   0  0  0  0  0  0  0  0  0  0  0  0
    7.3462    1.3281   -1.4675 C   0  0  0  0  0  0  0  0  0  0  0  0
    6.1671    0.8874   -1.9916 C   0  0  0  0  0  0  0  0  0  0  0  0
    5.3661    0.1263   -1.2272 N   0  0  0  0  0  0  0  0  0  0  0  0
    5.1775   -0.9827    2.3191 C   0  0  0  0  0  0  0  0  0  0  0  0
   -5.0369   -3.9626    0.6302 H   0  0  0  0  0  0  0  0  0  0  0  0
   -3.0920   -2.5752    1.3726 H   0  0  0  0  0  0  0  0  0  0  0  0
   -1.6801   -2.3880   -2.6998 H   0  0  0  0  0  0  0  0  0  0  0  0
   -3.5847   -3.7427   -3.4106 H   0  0  0  0  0  0  0  0  0  0  0  0
   -3.5072   -0.3096   -0.9864 H   0  0  0  0  0  0  0  0  0  0  0  0
   -5.9044    0.1189    0.0474 H   0  0  0  0  0  0  0  0  0  0  0  0
   -7.7230    1.7553    0.1638 H   0  0  0  0  0  0  0  0  0  0  0  0
   -4.8163    4.8579   -0.5013 H   0  0  0  0  0  0  0  0  0  0  0  0
   -2.4758    2.6556    1.1618 H   0  0  0  0  0  0  0  0  0  0  0  0
   -1.5436    1.4432    2.1041 H   0  0  0  0  0  0  0  0  0  0  0  0
   -0.1509    3.2855    1.1204 H   0  0  0  0  0  0  0  0  0  0  0  0
   -0.5155    2.5545   -0.5038 H   0  0  0  0  0  0  0  0  0  0  0  0
    1.0684    1.3264    1.8217 H   0  0  0  0  0  0  0  0  0  0  0  0
    1.5255    1.7060    0.1276 H   0  0  0  0  0  0  0  0  0  0  0  0
    3.1451    0.3212    1.0709 H   0  0  0  0  0  0  0  0  0  0  0  0
    4.8121   -2.1395    0.5242 H   0  0  0  0  0  0  0  0  0  0  0  0
    7.1417   -0.0480    1.5947 H   0  0  0  0  0  0  0  0  0  0  0  0
    8.6397    1.3342    0.2632 H   0  0  0  0  0  0  0  0  0  0  0  0
    8.0657    1.9529   -2.0083 H   0  0  0  0  0  0  0  0  0  0  0  0
    5.9276    1.1710   -3.0024 H   0  0  0  0  0  0  0  0  0  0  0  0
    5.2997    0.0805    2.6005 H   0  0  0  0  0  0  0  0  0  0  0  0
    4.3359   -1.3846    2.9127 H   0  0  0  0  0  0  0  0  0  0  0  0
    6.1162   -1.5415    2.5203 H   0  0  0  0  0  0  0  0  0  0  0  0
  1  2  1  0
  2  3  2  0
  3  4  1  0
  4  5  2  0
  5  6  1  0
  6  7  2  0
  5  8  1  0
  8  9  1  0
  9 10  2  0
 10 11  1  0
 11 12  2  0
 12 13  1  0
 13 14  2  0
 14 15  1  0
 15 16  2  0
 16 17  1  0
 17 18  2  0
 18 19  1  0
 19 20  2  0
 18 21  1  0
 13 22  1  0
 22 23  1  0
 23 24  1  0
 10 25  1  0
 25 26  2  0
 25 27  1  0
 27 28  1  0
 28 29  1  0
 29 30  2  0
 30 31  1  0
 31 32  2  0
 32 33  1  0
 33 34  2  0
 28 35  1  0
  7  2  1  0
 12  8  1  0
 20 15  1  0
 34 29  1  0
 24 11  1  0
  3 36  1  0
  4 37  1  0
  6 38  1  0
  7 39  1  0
 14 40  1  0
 16 41  1  0
 17 42  1  0
 19 43  1  0
 22 44  1  0
 22 45  1  0
 23 46  1  0
 23 47  1  0
 24 48  1  0
 24 49  1  0
 27 50  1  0
 28 51  1  6
 30 52  1  0
 31 53  1  0
 32 54  1  0
 33 55  1  0
 35 56  1  0
 35 57  1  0
 35 58  1  0
M  END
>  <Ligand ID>  (1) 
LIG0005422

>  <Ligand>  (1) 
CHEMBL3966803

>  <SMILES>  (1) 
Clc1ccc(cc1)n1nc(c2c1/C(=C/c1ccc(cn1)Cl)/CCC2)C(=O)N[C@@H](c1ccccn1)C

>  <CID>  (1) 
134150307.0

>  <ChEMBL ID>  (1) 
nan

>  <InChiKey>  (1) 
GKAXOANONMZCFR-PQMNFKMDSA-N

>  <InChi>  (1) 
InChI=1S/C27H23Cl2N5O/c1-17(24-7-2-3-14-30-24)32-27(35)25-23-6-4-5-18(15-21-11-8-20(29)16-31-21)26(23)34(33-25)22-12-9-19(28)10-13-22/h2-3,7-17H,4-6H2,1H3,(H,32,35)/b18-15+/t17-/m1/s1

>  <IUPAC Name>  (1) 
(7E)-1-(4-chlorophenyl)-7-[(5-chloropyridin-2-yl)methylidene]-N-[(1R)-1-pyridin-2-ylethyl]-5,6-dihydro-4H-indazole-3-carboxamide

$$$$
