
     RDKit          3D

 50 52  0  0  0  0  0  0  0  0999 V2000
   -6.1776   -0.8589    0.7026 C   0  0  0  0  0  0  0  0  0  0  0  0
   -5.6727   -1.8739   -0.2944 C   0  0  0  0  0  0  0  0  0  0  0  0
   -4.2655   -2.3205    0.0354 C   0  0  0  0  0  0  0  0  0  0  0  0
   -3.3104   -1.1846    0.0277 C   0  0  0  0  0  0  0  0  0  0  0  0
   -3.1859   -0.2774    1.0460 C   0  0  0  0  0  0  0  0  0  0  0  0
   -2.2879    0.7724    1.0113 C   0  0  0  0  0  0  0  0  0  0  0  0
   -1.4626    0.9527   -0.0745 C   0  0  0  0  0  0  0  0  0  0  0  0
   -1.5662    0.0528   -1.1165 C   0  0  0  0  0  0  0  0  0  0  0  0
   -2.4665   -0.9926   -1.0721 C   0  0  0  0  0  0  0  0  0  0  0  0
   -0.5234    2.0047   -0.1726 N   0  0  0  0  0  0  0  0  0  0  0  0
    0.8486    2.0375    0.2433 C   0  0  2  0  0  0  0  0  0  0  0  0
    1.4895    2.7739   -0.9090 C   0  0  0  0  0  0  0  0  0  0  0  0
    0.5349    3.9491   -1.0585 C   0  0  0  0  0  0  0  0  0  0  0  0
   -0.7758    3.3091   -0.7361 C   0  0  0  0  0  0  0  0  0  0  0  0
   -1.8970    3.8465   -0.9356 O   0  0  0  0  0  0  0  0  0  0  0  0
    1.4652    0.6746    0.4542 C   0  0  0  0  0  0  0  0  0  0  0  0
    1.4523   -0.0975   -0.6855 O   0  0  0  0  0  0  0  0  0  0  0  0
    2.0240   -1.3564   -0.4827 C   0  0  0  0  0  0  0  0  0  0  0  0
    3.4564   -1.2233   -0.0473 C   0  0  0  0  0  0  0  0  0  0  0  0
    4.5908   -1.1702   -0.8294 C   0  0  0  0  0  0  0  0  0  0  0  0
    5.7614   -1.0483   -0.1900 C   0  0  0  0  0  0  0  0  0  0  0  0
    5.7764   -0.9853    1.1434 C   0  0  0  0  0  0  0  0  0  0  0  0
    4.0602   -1.0992    1.6033 S   0  0  0  0  0  0  0  0  0  0  0  0
    6.8762   -0.8544    2.0957 C   0  0  0  0  0  0  0  0  0  0  0  0
    6.6598   -0.8140    3.3338 O   0  0  0  0  0  0  0  0  0  0  0  0
    8.1549   -0.7784    1.5630 O   0  0  0  0  0  0  0  0  0  0  0  0
   -4.2941   -2.9924    1.2501 O   0  0  0  0  0  0  0  0  0  0  0  0
   -7.2763   -0.7492    0.5492 H   0  0  0  0  0  0  0  0  0  0  0  0
   -6.0388   -1.2144    1.7574 H   0  0  0  0  0  0  0  0  0  0  0  0
   -5.7260    0.1303    0.5781 H   0  0  0  0  0  0  0  0  0  0  0  0
   -5.7258   -1.3813   -1.2902 H   0  0  0  0  0  0  0  0  0  0  0  0
   -6.3638   -2.7238   -0.2847 H   0  0  0  0  0  0  0  0  0  0  0  0
   -3.9152   -3.0586   -0.7193 H   0  0  0  0  0  0  0  0  0  0  0  0
   -3.8021   -0.3687    1.9171 H   0  0  0  0  0  0  0  0  0  0  0  0
   -2.2060    1.4865    1.8387 H   0  0  0  0  0  0  0  0  0  0  0  0
   -0.9456    0.1290   -2.0127 H   0  0  0  0  0  0  0  0  0  0  0  0
   -2.5304   -1.6896   -1.9055 H   0  0  0  0  0  0  0  0  0  0  0  0
    0.9244    2.6666    1.1454 H   0  0  0  0  0  0  0  0  0  0  0  0
    2.5050    3.1283   -0.6469 H   0  0  0  0  0  0  0  0  0  0  0  0
    1.4397    2.1799   -1.8356 H   0  0  0  0  0  0  0  0  0  0  0  0
    0.8192    4.6946   -0.2767 H   0  0  0  0  0  0  0  0  0  0  0  0
    0.5591    4.3892   -2.0759 H   0  0  0  0  0  0  0  0  0  0  0  0
    1.0550    0.1701    1.3388 H   0  0  0  0  0  0  0  0  0  0  0  0
    2.5457    0.8787    0.6884 H   0  0  0  0  0  0  0  0  0  0  0  0
    2.0624   -1.9225   -1.4119 H   0  0  0  0  0  0  0  0  0  0  0  0
    1.5002   -1.9322    0.2954 H   0  0  0  0  0  0  0  0  0  0  0  0
    4.4861   -1.2296   -1.9336 H   0  0  0  0  0  0  0  0  0  0  0  0
    6.7283   -0.9990   -0.7708 H   0  0  0  0  0  0  0  0  0  0  0  0
    8.9843   -0.6772    2.1707 H   0  0  0  0  0  0  0  0  0  0  0  0
   -4.3443   -2.3535    2.0049 H   0  0  0  0  0  0  0  0  0  0  0  0
  1  2  1  0
  2  3  1  0
  3  4  1  0
  4  5  2  0
  5  6  1  0
  6  7  2  0
  7  8  1  0
  8  9  2  0
  7 10  1  0
 10 11  1  0
 11 12  1  0
 12 13  1  0
 13 14  1  0
 14 15  2  0
 11 16  1  0
 16 17  1  0
 17 18  1  0
 18 19  1  0
 19 20  2  0
 20 21  1  0
 21 22  2  0
 22 23  1  0
 22 24  1  0
 24 25  2  0
 24 26  1  0
  3 27  1  0
  9  4  1  0
 14 10  1  0
 23 19  1  0
  1 28  1  0
  1 29  1  0
  1 30  1  0
  2 31  1  0
  2 32  1  0
  3 33  1  0
  5 34  1  0
  6 35  1  0
  8 36  1  0
  9 37  1  0
 11 38  1  1
 12 39  1  0
 12 40  1  0
 13 41  1  0
 13 42  1  0
 16 43  1  0
 16 44  1  0
 18 45  1  0
 18 46  1  0
 20 47  1  0
 21 48  1  0
 26 49  1  0
 27 50  1  0
M  END
>  <Ligand ID>  (1) 
LIG0004058

>  <Ligand>  (1) 
SCHEMBL1310744

>  <SMILES>  (1) 
CCC(c1ccc(cc1)N1[C@H](CCC1=O)COCc1ccc(s1)C(=O)O)O

>  <CID>  (1) 
11855867.0

>  <ChEMBL ID>  (1) 
nan

>  <InChiKey>  (1) 
CQNLDPUJXLNMDP-LDCVWXEPSA-N

>  <InChi>  (1) 
InChI=1S/C20H23NO5S/c1-2-17(22)13-3-5-14(6-4-13)21-15(7-10-19(21)23)11-26-12-16-8-9-18(27-16)20(24)25/h3-6,8-9,15,17,22H,2,7,10-12H2,1H3,(H,24,25)/t15-,17?/m1/s1

>  <IUPAC Name>  (1) 
5-[[(2R)-1-[4-(1-hydroxypropyl)phenyl]-5-oxopyrrolidin-2-yl]methoxymethyl]thiophene-2-carboxylic acid

$$$$
