
     RDKit          3D

 61 64  0  0  0  0  0  0  0  0999 V2000
   -1.6664    4.1056   -1.4889 C   0  0  0  0  0  0  0  0  0  0  0  0
   -2.9606    3.5439   -1.5942 O   0  0  0  0  0  0  0  0  0  0  0  0
   -3.1251    2.2351   -1.1572 C   0  0  0  0  0  0  0  0  0  0  0  0
   -2.0729    1.5075   -0.6405 C   0  0  0  0  0  0  0  0  0  0  0  0
   -2.1999    0.2272   -0.2050 C   0  0  0  0  0  0  0  0  0  0  0  0
   -3.4619   -0.3547   -0.2954 C   0  0  0  0  0  0  0  0  0  0  0  0
   -4.5487    0.3477   -0.8112 C   0  0  0  0  0  0  0  0  0  0  0  0
   -4.3830    1.6469   -1.2443 C   0  0  0  0  0  0  0  0  0  0  0  0
   -5.4138    2.4140   -1.7702 O   0  0  0  0  0  0  0  0  0  0  0  0
   -6.6898    1.8052   -1.8540 C   0  0  0  0  0  0  0  0  0  0  0  0
   -3.5936   -1.6221    0.1350 N   0  0  0  0  0  0  0  0  0  0  0  0
   -2.5132   -2.2862    0.6359 C   0  0  0  0  0  0  0  0  0  0  0  0
   -1.3003   -1.7037    0.7143 N   0  0  0  0  0  0  0  0  0  0  0  0
   -1.1068   -0.4216    0.2934 C   0  0  0  0  0  0  0  0  0  0  0  0
    0.1899    0.1243    0.4025 N   0  0  0  0  0  0  0  0  0  0  0  0
    0.9750    0.5845   -0.7317 C   0  0  0  0  0  0  0  0  0  0  0  0
    2.3094   -0.1717   -0.6774 C   0  0  0  0  0  0  0  0  0  0  0  0
    2.9032    0.1905    0.5951 N   0  0  0  0  0  0  0  0  0  0  0  0
    2.1397    0.8025    1.6595 C   0  0  0  0  0  0  0  0  0  0  0  0
    0.7651    0.2257    1.7298 C   0  0  0  0  0  0  0  0  0  0  0  0
    4.3035   -0.0602    0.8254 C   0  0  0  0  0  0  0  0  0  0  0  0
    4.7181   -0.8903    1.8542 C   0  0  0  0  0  0  0  0  0  0  0  0
    6.0800   -1.1180    2.0580 C   0  0  0  0  0  0  0  0  0  0  0  0
    7.0370   -0.5179    1.2354 C   0  0  0  0  0  0  0  0  0  0  0  0
    6.6201    0.3058    0.2150 C   0  0  0  0  0  0  0  0  0  0  0  0
    5.2638    0.5345    0.0095 C   0  0  0  0  0  0  0  0  0  0  0  0
    4.8859    1.3684   -1.0265 O   0  0  0  0  0  0  0  0  0  0  0  0
    5.8566    1.9859   -1.8714 C   0  0  0  0  0  0  0  0  0  0  0  0
   -2.7712   -3.6826    1.0825 C   0  0  0  0  0  0  0  0  0  0  0  0
   -3.9050   -3.7106    2.0913 C   0  0  0  0  0  0  0  0  0  0  0  0
   -3.2041   -4.5141   -0.1245 C   0  0  0  0  0  0  0  0  0  0  0  0
   -0.9532    3.4428   -2.0558 H   0  0  0  0  0  0  0  0  0  0  0  0
   -1.6318    5.1466   -1.8631 H   0  0  0  0  0  0  0  0  0  0  0  0
   -1.3339    4.0659   -0.4322 H   0  0  0  0  0  0  0  0  0  0  0  0
   -1.1187    2.0104   -0.5940 H   0  0  0  0  0  0  0  0  0  0  0  0
   -5.5310   -0.1145   -0.8781 H   0  0  0  0  0  0  0  0  0  0  0  0
   -7.0092    1.4556   -0.8385 H   0  0  0  0  0  0  0  0  0  0  0  0
   -6.6022    0.8927   -2.4789 H   0  0  0  0  0  0  0  0  0  0  0  0
   -7.4422    2.4899   -2.2953 H   0  0  0  0  0  0  0  0  0  0  0  0
    1.2367    1.6642   -0.5706 H   0  0  0  0  0  0  0  0  0  0  0  0
    0.5148    0.3828   -1.6956 H   0  0  0  0  0  0  0  0  0  0  0  0
    2.9783    0.1013   -1.4908 H   0  0  0  0  0  0  0  0  0  0  0  0
    2.0823   -1.2564   -0.6230 H   0  0  0  0  0  0  0  0  0  0  0  0
    2.0138    1.8997    1.4372 H   0  0  0  0  0  0  0  0  0  0  0  0
    2.6784    0.7039    2.6139 H   0  0  0  0  0  0  0  0  0  0  0  0
    0.0911    0.9124    2.3024 H   0  0  0  0  0  0  0  0  0  0  0  0
    0.8000   -0.7804    2.2130 H   0  0  0  0  0  0  0  0  0  0  0  0
    3.9989   -1.3671    2.5052 H   0  0  0  0  0  0  0  0  0  0  0  0
    6.4470   -1.7592    2.8500 H   0  0  0  0  0  0  0  0  0  0  0  0
    8.0870   -0.7180    1.4236 H   0  0  0  0  0  0  0  0  0  0  0  0
    7.3862    0.7612   -0.4120 H   0  0  0  0  0  0  0  0  0  0  0  0
    5.3768    2.7727   -2.4838 H   0  0  0  0  0  0  0  0  0  0  0  0
    6.6093    2.4776   -1.1938 H   0  0  0  0  0  0  0  0  0  0  0  0
    6.4028    1.2750   -2.4955 H   0  0  0  0  0  0  0  0  0  0  0  0
   -1.8393   -4.1192    1.4576 H   0  0  0  0  0  0  0  0  0  0  0  0
   -4.7601   -3.2097    1.5900 H   0  0  0  0  0  0  0  0  0  0  0  0
   -4.1633   -4.7734    2.2665 H   0  0  0  0  0  0  0  0  0  0  0  0
   -3.5796   -3.2278    3.0202 H   0  0  0  0  0  0  0  0  0  0  0  0
   -3.7203   -3.8068   -0.8279 H   0  0  0  0  0  0  0  0  0  0  0  0
   -2.2873   -4.8750   -0.6370 H   0  0  0  0  0  0  0  0  0  0  0  0
   -3.8624   -5.3487    0.1420 H   0  0  0  0  0  0  0  0  0  0  0  0
  1  2  1  0
  2  3  1  0
  3  4  2  0
  4  5  1  0
  5  6  2  0
  6  7  1  0
  7  8  2  0
  8  9  1  0
  9 10  1  0
  6 11  1  0
 11 12  2  0
 12 13  1  0
 13 14  2  0
 14 15  1  0
 15 16  1  0
 16 17  1  0
 17 18  1  0
 18 19  1  0
 19 20  1  0
 18 21  1  0
 21 22  2  0
 22 23  1  0
 23 24  2  0
 24 25  1  0
 25 26  2  0
 26 27  1  0
 27 28  1  0
 12 29  1  0
 29 30  1  0
 29 31  1  0
  8  3  1  0
 20 15  1  0
 26 21  1  0
 14  5  1  0
  1 32  1  0
  1 33  1  0
  1 34  1  0
  4 35  1  0
  7 36  1  0
 10 37  1  0
 10 38  1  0
 10 39  1  0
 16 40  1  0
 16 41  1  0
 17 42  1  0
 17 43  1  0
 19 44  1  0
 19 45  1  0
 20 46  1  0
 20 47  1  0
 22 48  1  0
 23 49  1  0
 24 50  1  0
 25 51  1  0
 28 52  1  0
 28 53  1  0
 28 54  1  0
 29 55  1  0
 30 56  1  0
 30 57  1  0
 30 58  1  0
 31 59  1  0
 31 60  1  0
 31 61  1  0
M  END
>  <Ligand ID>  (1) 
LIG0003459

>  <Ligand>  (1) 
CHEMBL2431117

>  <SMILES>  (1) 
COc1cc2c(cc1OC)nc(nc2N1CCN(CC1)c1ccccc1OC)C(C)C

>  <CID>  (1) 
54758539.0

>  <ChEMBL ID>  (1) 
nan

>  <InChiKey>  (1) 
QPUARXBBBJKJPI-UHFFFAOYSA-N

>  <InChi>  (1) 
InChI=1S/C24H30N4O3/c1-16(2)23-25-18-15-22(31-5)21(30-4)14-17(18)24(26-23)28-12-10-27(11-13-28)19-8-6-7-9-20(19)29-3/h6-9,14-16H,10-13H2,1-5H3

>  <IUPAC Name>  (1) 
6,7-dimethoxy-4-[4-(2-methoxyphenyl)piperazin-1-yl]-2-propan-2-ylquinazoline

$$$$
