
     RDKit          3D

 93 96  0  0  0  0  0  0  0  0999 V2000
    3.7959    6.5038    2.5814 N   0  0  0  0  0  0  0  0  0  0  0  0
    4.1065    6.1121    1.2424 C   0  0  0  0  0  0  0  0  0  0  0  0
    3.3596    5.2297    0.6512 N   0  0  0  0  0  0  0  0  0  0  0  0
    3.5920    4.7745   -0.6912 C   0  0  0  0  0  0  0  0  0  0  0  0
    3.3480    3.2617   -0.8470 C   0  0  0  0  0  0  0  0  0  0  0  0
    1.9246    3.0255   -0.4910 C   0  0  0  0  0  0  0  0  0  0  0  0
    1.4211    1.6212   -0.6082 C   0  0  1  0  0  0  0  0  0  0  0  0
    2.1462    0.6277    0.2477 C   0  0  0  0  0  0  0  0  0  0  0  0
    1.4418    0.1577    1.2109 O   0  0  0  0  0  0  0  0  0  0  0  0
    3.4835    0.2311    0.0236 N   0  0  0  0  0  0  0  0  0  0  0  0
    4.0929   -0.7768    0.9522 C   0  0  2  0  0  0  0  0  0  0  0  0
    5.1297   -0.1414    1.7517 C   0  0  0  0  0  0  0  0  0  0  0  0
    5.5157    1.0441    1.4566 O   0  0  0  0  0  0  0  0  0  0  0  0
    5.7772   -0.7235    2.8727 N   0  0  0  0  0  0  0  0  0  0  0  0
    4.4446   -1.9894    0.1657 C   0  0  0  0  0  0  0  0  0  0  0  0
    5.0563   -3.0438    0.9494 C   0  0  0  0  0  0  0  0  0  0  0  0
    4.3144   -4.1010    1.5090 C   0  0  0  0  0  0  0  0  0  0  0  0
    5.1344   -4.9106    2.1977 N   0  0  0  0  0  0  0  0  0  0  0  0
    6.3780   -4.4372    2.1172 C   0  0  0  0  0  0  0  0  0  0  0  0
    6.3479   -3.2920    1.3545 C   0  0  0  0  0  0  0  0  0  0  0  0
    7.5339   -2.6047    1.1032 C   0  0  0  0  0  0  0  0  0  0  0  0
    8.7302   -3.0843    1.6281 C   0  0  0  0  0  0  0  0  0  0  0  0
    8.7019   -4.2320    2.3844 C   0  0  0  0  0  0  0  0  0  0  0  0
    7.5579   -4.9460    2.6589 C   0  0  0  0  0  0  0  0  0  0  0  0
    0.0206    1.6694   -0.1770 N   0  0  0  0  0  0  0  0  0  0  0  0
   -0.8919    0.8954   -0.9500 C   0  0  0  0  0  0  0  0  0  0  0  0
   -0.4673    0.2350   -1.9312 O   0  0  0  0  0  0  0  0  0  0  0  0
   -2.3274    0.8810   -0.5773 C   0  0  2  0  0  0  0  0  0  0  0  0
   -3.0705   -0.0692   -1.3937 N   0  0  0  0  0  0  0  0  0  0  0  0
   -3.8068   -1.0581   -0.7098 C   0  0  0  0  0  0  0  0  0  0  0  0
   -3.7997   -1.0805    0.5483 O   0  0  0  0  0  0  0  0  0  0  0  0
   -4.6173   -2.1123   -1.3911 C   0  0  2  0  0  0  0  0  0  0  0  0
   -5.6629   -1.4851   -2.2824 C   0  0  0  0  0  0  0  0  0  0  0  0
   -6.4768   -2.5468   -2.9697 C   0  0  0  0  0  0  0  0  0  0  0  0
   -6.2169   -3.1337   -4.1688 N   0  0  0  0  0  0  0  0  0  0  0  0
   -7.1965   -4.0337   -4.4216 C   0  0  0  0  0  0  0  0  0  0  0  0
   -8.0814   -4.0312   -3.3992 N   0  0  0  0  0  0  0  0  0  0  0  0
   -7.6418   -3.1206   -2.5081 C   0  0  0  0  0  0  0  0  0  0  0  0
   -5.2978   -2.9540   -0.4271 N   0  0  0  0  0  0  0  0  0  0  0  0
   -6.1883   -2.4131    0.5697 C   0  0  0  0  0  0  0  0  0  0  0  0
   -6.4132   -1.1702    0.6424 O   0  0  0  0  0  0  0  0  0  0  0  0
   -6.8398   -3.3322    1.5133 C   0  0  0  0  0  0  0  0  0  0  0  0
   -2.8764    2.2502   -0.9721 C   0  0  0  0  0  0  0  0  0  0  0  0
   -4.3395    2.3460   -0.6273 C   0  0  0  0  0  0  0  0  0  0  0  0
   -4.7767    2.8385    0.5849 C   0  0  0  0  0  0  0  0  0  0  0  0
   -6.1272    2.9145    0.8969 C   0  0  0  0  0  0  0  0  0  0  0  0
   -7.0374    2.4783   -0.0506 C   0  0  0  0  0  0  0  0  0  0  0  0
   -6.5876    1.9832   -1.2705 C   0  0  0  0  0  0  0  0  0  0  0  0
   -5.2497    1.9038   -1.5893 C   0  0  0  0  0  0  0  0  0  0  0  0
   -9.1140    2.5261    0.2749 I   0  0  0  0  0  0  0  0  0  0  0  0
    5.2268    6.6773    0.5439 N   0  0  0  0  0  0  0  0  0  0  0  0
    4.6288    6.5474    3.2288 H   0  0  0  0  0  0  0  0  0  0  0  0
    2.8607    6.7289    2.9272 H   0  0  0  0  0  0  0  0  0  0  0  0
    4.5737    5.0319   -1.1134 H   0  0  0  0  0  0  0  0  0  0  0  0
    2.7966    5.2410   -1.3452 H   0  0  0  0  0  0  0  0  0  0  0  0
    3.6567    2.9999   -1.8562 H   0  0  0  0  0  0  0  0  0  0  0  0
    4.0617    2.8083   -0.1121 H   0  0  0  0  0  0  0  0  0  0  0  0
    1.7966    3.3851    0.5667 H   0  0  0  0  0  0  0  0  0  0  0  0
    1.3063    3.7063   -1.1395 H   0  0  0  0  0  0  0  0  0  0  0  0
    1.5526    1.2609   -1.6344 H   0  0  0  0  0  0  0  0  0  0  0  0
    4.0450    0.6060   -0.7685 H   0  0  0  0  0  0  0  0  0  0  0  0
    3.2224   -1.0614    1.6207 H   0  0  0  0  0  0  0  0  0  0  0  0
    6.7383   -0.5107    3.1842 H   0  0  0  0  0  0  0  0  0  0  0  0
    5.2648   -1.4429    3.4666 H   0  0  0  0  0  0  0  0  0  0  0  0
    3.4861   -2.3363   -0.3216 H   0  0  0  0  0  0  0  0  0  0  0  0
    5.0952   -1.7496   -0.7192 H   0  0  0  0  0  0  0  0  0  0  0  0
    3.2463   -4.2618    1.4137 H   0  0  0  0  0  0  0  0  0  0  0  0
    4.8483   -5.7714    2.7139 H   0  0  0  0  0  0  0  0  0  0  0  0
    7.4644   -1.7155    0.5021 H   0  0  0  0  0  0  0  0  0  0  0  0
    9.6612   -2.5363    1.4268 H   0  0  0  0  0  0  0  0  0  0  0  0
    9.6336   -4.6098    2.7989 H   0  0  0  0  0  0  0  0  0  0  0  0
    7.5279   -5.8489    3.2511 H   0  0  0  0  0  0  0  0  0  0  0  0
   -0.2790    2.2415    0.6460 H   0  0  0  0  0  0  0  0  0  0  0  0
   -2.4740    0.6490    0.4691 H   0  0  0  0  0  0  0  0  0  0  0  0
   -3.0782   -0.0453   -2.4362 H   0  0  0  0  0  0  0  0  0  0  0  0
   -3.9662   -2.7195   -2.0673 H   0  0  0  0  0  0  0  0  0  0  0  0
   -6.3269   -0.8685   -1.6489 H   0  0  0  0  0  0  0  0  0  0  0  0
   -5.2020   -0.8457   -3.0689 H   0  0  0  0  0  0  0  0  0  0  0  0
   -5.4041   -2.9285   -4.7906 H   0  0  0  0  0  0  0  0  0  0  0  0
   -7.3053   -4.6868   -5.2957 H   0  0  0  0  0  0  0  0  0  0  0  0
   -8.1492   -2.8816   -1.5578 H   0  0  0  0  0  0  0  0  0  0  0  0
   -5.1416   -4.0014   -0.4475 H   0  0  0  0  0  0  0  0  0  0  0  0
   -6.3975   -3.1405    2.5288 H   0  0  0  0  0  0  0  0  0  0  0  0
   -6.7154   -4.3798    1.1819 H   0  0  0  0  0  0  0  0  0  0  0  0
   -7.9328   -3.0690    1.5336 H   0  0  0  0  0  0  0  0  0  0  0  0
   -2.7005    2.4549   -2.0449 H   0  0  0  0  0  0  0  0  0  0  0  0
   -2.3253    2.9997   -0.3883 H   0  0  0  0  0  0  0  0  0  0  0  0
   -4.0481    3.1748    1.3107 H   0  0  0  0  0  0  0  0  0  0  0  0
   -6.4834    3.3015    1.8492 H   0  0  0  0  0  0  0  0  0  0  0  0
   -7.3133    1.6388   -2.0160 H   0  0  0  0  0  0  0  0  0  0  0  0
   -4.8921    1.5139   -2.5478 H   0  0  0  0  0  0  0  0  0  0  0  0
    5.0452    6.9004   -0.4760 H   0  0  0  0  0  0  0  0  0  0  0  0
    6.1457    6.8565    0.9972 H   0  0  0  0  0  0  0  0  0  0  0  0
  1  2  1  0
  2  3  2  3
  3  4  1  0
  4  5  1  0
  5  6  1  0
  6  7  1  0
  7  8  1  0
  8  9  2  0
  8 10  1  0
 10 11  1  0
 11 12  1  0
 12 13  2  0
 12 14  1  0
 11 15  1  0
 15 16  1  0
 16 17  2  0
 17 18  1  0
 18 19  1  0
 19 20  2  0
 20 21  1  0
 21 22  2  0
 22 23  1  0
 23 24  2  0
  7 25  1  0
 25 26  1  0
 26 27  2  0
 26 28  1  0
 28 29  1  0
 29 30  1  0
 30 31  2  0
 30 32  1  0
 32 33  1  0
 33 34  1  0
 34 35  1  0
 35 36  1  0
 36 37  2  0
 37 38  1  0
 32 39  1  0
 39 40  1  0
 40 41  2  0
 40 42  1  0
 28 43  1  0
 43 44  1  0
 44 45  2  0
 45 46  1  0
 46 47  2  0
 47 48  1  0
 48 49  2  0
 47 50  1  0
  2 51  1  0
 20 16  1  0
 38 34  2  0
 49 44  1  0
 24 19  1  0
  1 52  1  0
  1 53  1  0
  4 54  1  0
  4 55  1  0
  5 56  1  0
  5 57  1  0
  6 58  1  0
  6 59  1  0
  7 60  1  6
 10 61  1  0
 11 62  1  1
 14 63  1  0
 14 64  1  0
 15 65  1  0
 15 66  1  0
 17 67  1  0
 18 68  1  0
 21 69  1  0
 22 70  1  0
 23 71  1  0
 24 72  1  0
 25 73  1  0
 28 74  1  1
 29 75  1  0
 32 76  1  6
 33 77  1  0
 33 78  1  0
 35 79  1  0
 36 80  1  0
 38 81  1  0
 39 82  1  0
 42 83  1  0
 42 84  1  0
 42 85  1  0
 43 86  1  0
 43 87  1  0
 45 88  1  0
 46 89  1  0
 48 90  1  0
 49 91  1  0
 51 92  1  0
 51 93  1  0
M  END
>  <Ligand ID>  (1) 
LIG0001431

>  <Ligand>  (1) 
CHEMBL322610

>  <SMILES>  (1) 
NC(=NCCC[C@@H](C(=O)N[C@H](C(=O)N)Cc1c[nH]c2c1cccc2)NC(=O)[C@H](NC(=O)[C@H](Cc1[nH]cnc1)NC(=O)C)Cc1ccc(cc1)I)N

>  <CID>  (1) 
9875763.0

>  <ChEMBL ID>  (1) 
nan

>  <InChiKey>  (1) 
OBADRSUMIBIHEX-FKWFRFQNSA-N

>  <InChi>  (1) 
InChI=1S/C34H42IN11O5/c1-19(47)43-29(15-23-17-39-18-42-23)33(51)46-28(13-20-8-10-22(35)11-9-20)32(50)44-26(7-4-12-40-34(37)38)31(49)45-27(30(36)48)14-21-16-41-25-6-3-2-5-24(21)25/h2-3,5-6,8-11,16-18,26-29,41H,4,7,12-15H2,1H3,(H2,36,48)(H,39,42)(H,43,47)(H,44,50)(H,45,49)(H,46,51)(H4,37,38,40)/t26-,27-,28+,29-/m0/s1

>  <IUPAC Name>  (1) 
(2S)-2-[[(2R)-2-[[(2S)-2-acetamido-3-(1H-imidazol-5-yl)propanoyl]amino]-3-(4-iodophenyl)propanoyl]amino]-N-[(2S)-1-amino-3-(1H-indol-3-yl)-1-oxopropan-2-yl]-5-(diaminomethylideneamino)pentanamide

$$$$
