
     RDKit          3D

 24 23  0  0  0  0  0  0  0  0999 V2000
   -3.3954    0.7565    0.8708 C   0  0  0  0  0  0  0  0  0  0  0  0
   -2.6033   -0.4921    0.5670 C   0  0  0  0  0  0  0  0  0  0  0  0
   -1.3689   -0.0747   -0.2044 C   0  0  0  0  0  0  0  0  0  0  0  0
   -0.5073   -1.2437   -0.5587 C   0  0  0  0  0  0  0  0  0  0  0  0
    0.7048   -0.7243   -1.3313 C   0  0  0  0  0  0  0  0  0  0  0  0
    1.4911    0.2330   -0.5186 C   0  0  0  0  0  0  0  0  0  0  0  0
    2.7596   -0.0369   -0.2414 C   0  0  0  0  0  0  0  0  0  0  0  0
    3.5318    0.9080    0.5594 C   0  0  0  0  0  0  0  0  0  0  0  0
    3.0020    1.9540    0.9755 O   0  0  0  0  0  0  0  0  0  0  0  0
    4.8664    0.6147    0.8456 O   0  0  0  0  0  0  0  0  0  0  0  0
   -4.2530    0.5536    1.5466 H   0  0  0  0  0  0  0  0  0  0  0  0
   -3.7127    1.2356   -0.0754 H   0  0  0  0  0  0  0  0  0  0  0  0
   -2.6822    1.4493    1.3788 H   0  0  0  0  0  0  0  0  0  0  0  0
   -2.2873   -0.9802    1.4928 H   0  0  0  0  0  0  0  0  0  0  0  0
   -3.1886   -1.2324   -0.0100 H   0  0  0  0  0  0  0  0  0  0  0  0
   -1.6693    0.4461   -1.1239 H   0  0  0  0  0  0  0  0  0  0  0  0
   -0.8138    0.6211    0.4773 H   0  0  0  0  0  0  0  0  0  0  0  0
   -0.2055   -1.8280    0.3099 H   0  0  0  0  0  0  0  0  0  0  0  0
   -1.0949   -1.9013   -1.2177 H   0  0  0  0  0  0  0  0  0  0  0  0
    0.3863   -0.1756   -2.2396 H   0  0  0  0  0  0  0  0  0  0  0  0
    1.2810   -1.5839   -1.6669 H   0  0  0  0  0  0  0  0  0  0  0  0
    1.0530    1.1333   -0.1548 H   0  0  0  0  0  0  0  0  0  0  0  0
    3.2048   -0.9524   -0.6120 H   0  0  0  0  0  0  0  0  0  0  0  0
    5.5015    1.3203    1.2049 H   0  0  0  0  0  0  0  0  0  0  0  0
  1  2  1  0
  2  3  1  0
  3  4  1  0
  4  5  1  0
  5  6  1  0
  6  7  2  0
  7  8  1  0
  8  9  2  0
  8 10  1  0
  1 11  1  0
  1 12  1  0
  1 13  1  0
  2 14  1  0
  2 15  1  0
  3 16  1  0
  3 17  1  0
  4 18  1  0
  4 19  1  0
  5 20  1  0
  5 21  1  0
  6 22  1  0
  7 23  1  0
 10 24  1  0
M  END
>  <Ligand ID>  (1) 
LIG0000376

>  <Ligand>  (1) 
trans-2-Octenoic acid

>  <SMILES>  (1) 
CCCCC/C=C/C(=O)O

>  <CID>  (1) 
5282714.0

>  <ChEMBL ID>  (1) 
nan

>  <InChiKey>  (1) 
CWMPPVPFLSZGCY-VOTSOKGWSA-N

>  <InChi>  (1) 
InChI=1S/C8H14O2/c1-2-3-4-5-6-7-8(9)10/h6-7H,2-5H2,1H3,(H,9,10)/b7-6+

>  <IUPAC Name>  (1) 
(E)-oct-2-enoic acid

$$$$
