
     RDKit          3D

 50 53  0  0  0  0  0  0  0  0999 V2000
   -2.0328    1.5191   -1.4170 O   0  0  0  0  0  0  0  0  0  0  0  0
   -0.9436    1.4391   -0.5860 C   0  0  2  0  0  0  0  0  0  0  0  0
    0.3696    1.8215   -1.2401 C   0  0  0  0  0  0  0  0  0  0  0  0
    1.3012    1.3690   -0.1240 C   0  0  1  0  0  0  0  0  0  0  0  0
    0.8779   -0.0326    0.0746 C   0  0  1  0  0  0  0  0  0  0  0  0
   -0.6497    0.0341   -0.0929 C   0  0  1  0  0  0  0  0  0  0  0  0
   -1.2714   -0.1077    1.2638 C   0  0  0  0  0  0  0  0  0  0  0  0
   -2.6281    0.0730    1.2995 O   0  0  0  0  0  0  0  0  0  0  0  0
   -3.6624   -0.5862    0.7281 C   0  0  0  0  0  0  0  0  0  0  0  0
   -3.6206   -1.6861   -0.0750 C   0  0  0  0  0  0  0  0  0  0  0  0
   -4.7585   -2.2805   -0.6109 C   0  0  0  0  0  0  0  0  0  0  0  0
   -5.9935   -1.7626   -0.3389 C   0  0  0  0  0  0  0  0  0  0  0  0
   -6.0771   -0.6612    0.4623 C   0  0  0  0  0  0  0  0  0  0  0  0
   -4.9508   -0.0767    0.9896 C   0  0  0  0  0  0  0  0  0  0  0  0
   -7.4110   -0.1024    0.7559 C   0  0  0  0  0  0  0  0  0  0  0  0
   -7.4045   -2.5461   -1.0375 Cl  0  0  0  0  0  0  0  0  0  0  0  0
    1.4753   -0.9946   -0.8955 C   0  0  0  0  0  0  0  0  0  0  0  0
    2.5831   -0.4330   -1.7279 C   0  0  0  0  0  0  0  0  0  0  0  0
    3.3070    0.7263   -1.1480 C   0  0  1  0  0  0  0  0  0  0  0  0
    2.6106    1.5958   -0.3778 O   0  0  0  0  0  0  0  0  0  0  0  0
    4.5369    0.2555   -0.4366 C   0  0  0  0  0  0  0  0  0  0  0  0
    4.9674   -0.9820   -0.3629 O   0  0  0  0  0  0  0  0  0  0  0  0
    6.0753   -1.0668    0.3333 C   0  0  0  0  0  0  0  0  0  0  0  0
    6.3982    0.2078    0.7486 C   0  0  0  0  0  0  0  0  0  0  0  0
    5.4236    1.0063    0.2545 N   0  0  0  0  0  0  0  0  0  0  0  0
    7.5524    0.5937    1.5516 C   0  0  0  0  0  0  0  0  0  0  0  0
    8.3457   -0.3136    1.9118 O   0  0  0  0  0  0  0  0  0  0  0  0
    7.7363    1.9292    1.8876 O   0  0  0  0  0  0  0  0  0  0  0  0
   -2.8409    1.8471   -0.9365 H   0  0  0  0  0  0  0  0  0  0  0  0
   -1.0299    2.1359    0.2941 H   0  0  0  0  0  0  0  0  0  0  0  0
    0.4542    1.2113   -2.1482 H   0  0  0  0  0  0  0  0  0  0  0  0
    0.4496    2.9111   -1.4241 H   0  0  0  0  0  0  0  0  0  0  0  0
    1.0066    1.9685    0.7667 H   0  0  0  0  0  0  0  0  0  0  0  0
    1.1349   -0.3123    1.1327 H   0  0  0  0  0  0  0  0  0  0  0  0
   -0.9970   -0.6663   -0.8431 H   0  0  0  0  0  0  0  0  0  0  0  0
   -0.8067    0.6908    1.9181 H   0  0  0  0  0  0  0  0  0  0  0  0
   -0.9578   -1.1094    1.6636 H   0  0  0  0  0  0  0  0  0  0  0  0
   -2.6906   -2.1417   -0.3133 H   0  0  0  0  0  0  0  0  0  0  0  0
   -4.6661   -3.1574   -1.2465 H   0  0  0  0  0  0  0  0  0  0  0  0
   -5.0828    0.7845    1.6103 H   0  0  0  0  0  0  0  0  0  0  0  0
   -7.3678    0.4225    1.7299 H   0  0  0  0  0  0  0  0  0  0  0  0
   -7.6589    0.6091   -0.0647 H   0  0  0  0  0  0  0  0  0  0  0  0
   -8.1426   -0.9191    0.8435 H   0  0  0  0  0  0  0  0  0  0  0  0
    0.7007   -1.3807   -1.6162 H   0  0  0  0  0  0  0  0  0  0  0  0
    1.7943   -1.9073   -0.3172 H   0  0  0  0  0  0  0  0  0  0  0  0
    3.3216   -1.2682   -1.8481 H   0  0  0  0  0  0  0  0  0  0  0  0
    2.2537   -0.2403   -2.7912 H   0  0  0  0  0  0  0  0  0  0  0  0
    3.6839    1.3268   -2.0287 H   0  0  0  0  0  0  0  0  0  0  0  0
    6.5992   -1.9949    0.5174 H   0  0  0  0  0  0  0  0  0  0  0  0
    8.6858    2.2515    2.0808 H   0  0  0  0  0  0  0  0  0  0  0  0
  1  2  1  0
  2  3  1  0
  3  4  1  0
  4  5  1  0
  5  6  1  0
  6  7  1  0
  7  8  1  0
  8  9  1  0
  9 10  2  0
 10 11  1  0
 11 12  2  0
 12 13  1  0
 13 14  2  0
 13 15  1  0
 12 16  1  0
  5 17  1  0
 17 18  1  0
 18 19  1  0
 19 20  1  0
 19 21  1  0
 21 22  1  0
 22 23  1  0
 23 24  2  0
 24 25  1  0
 24 26  1  0
 26 27  2  0
 26 28  1  0
  6  2  1  0
 14  9  1  0
 25 21  2  0
 20  4  1  0
  1 29  1  0
  2 30  1  1
  3 31  1  0
  3 32  1  0
  4 33  1  1
  5 34  1  1
  6 35  1  6
  7 36  1  0
  7 37  1  0
 10 38  1  0
 11 39  1  0
 14 40  1  0
 15 41  1  0
 15 42  1  0
 15 43  1  0
 17 44  1  0
 17 45  1  0
 18 46  1  0
 18 47  1  0
 19 48  1  6
 23 49  1  0
 28 50  1  0
M  END
>  <Ligand ID>  (1) 
LIG0000941

>  <Ligand>  (1) 
CHEMBL3793009

>  <SMILES>  (1) 
O[C@@H]1C[C@H]2[C@@H]([C@H]1COc1ccc(c(c1)C)Cl)CC[C@@H](O2)c1occ(n1)C(=O)O

>  <CID>  (1) 
127029402.0

>  <ChEMBL ID>  (1) 
nan

>  <InChiKey>  (1) 
AGDRDTDMBKFWKW-BSPHMWTBSA-N

>  <InChi>  (1) 
InChI=1S/C20H22ClNO6/c1-10-6-11(2-4-14(10)21)26-8-13-12-3-5-17(28-18(12)7-16(13)23)19-22-15(9-27-19)20(24)25/h2,4,6,9,12-13,16-18,23H,3,5,7-8H2,1H3,(H,24,25)/t12-,13-,16-,17-,18+/m1/s1

>  <IUPAC Name>  (1) 
2-[(2R,4aR,5S,6R,7aS)-5-[(4-chloro-3-methylphenoxy)methyl]-6-hydroxy-2,3,4,4a,5,6,7,7a-octahydrocyclopenta[b]pyran-2-yl]-1,3-oxazole-4-carboxylic acid

$$$$
