
     RDKit          3D

 29 31  0  0  0  0  0  0  0  0999 V2000
   -0.5869   -2.4792   -3.8675 Cl  0  0  0  0  0  0  0  0  0  0  0  0
   -0.4068   -1.5714   -2.3753 C   0  0  0  0  0  0  0  0  0  0  0  0
    0.8576   -1.1548   -2.0251 C   0  0  0  0  0  0  0  0  0  0  0  0
    1.0313   -0.4405   -0.8600 C   0  0  0  0  0  0  0  0  0  0  0  0
   -0.0514   -0.1875   -0.1233 N   0  0  0  0  0  0  0  0  0  0  0  0
   -1.2991   -0.5812   -0.4393 C   0  0  0  0  0  0  0  0  0  0  0  0
   -1.5286   -1.2995   -1.5953 C   0  0  0  0  0  0  0  0  0  0  0  0
   -2.4380   -0.2660    0.4191 C   0  0  0  0  0  0  0  0  0  0  0  0
   -2.2505    0.4550    1.5917 C   0  0  0  0  0  0  0  0  0  0  0  0
   -3.3788    0.7085    2.3421 C   0  0  0  0  0  0  0  0  0  0  0  0
   -4.6364    0.2761    1.9632 C   0  0  0  0  0  0  0  0  0  0  0  0
   -4.7538   -0.4423    0.7753 C   0  0  0  0  0  0  0  0  0  0  0  0
   -3.6570   -0.6985    0.0291 N   0  0  0  0  0  0  0  0  0  0  0  0
    2.3228    0.0472   -0.3965 C   0  0  0  0  0  0  0  0  0  0  0  0
    3.5038   -0.1566   -1.0774 C   0  0  0  0  0  0  0  0  0  0  0  0
    4.7179    0.3200   -0.6107 C   0  0  0  0  0  0  0  0  0  0  0  0
    4.7717    1.0250    0.5725 C   0  0  0  0  0  0  0  0  0  0  0  0
    3.5801    1.2179    1.2377 C   0  0  0  0  0  0  0  0  0  0  0  0
    2.4316    0.7504    0.7680 N   0  0  0  0  0  0  0  0  0  0  0  0
    1.7114   -1.3788   -2.6477 H   0  0  0  0  0  0  0  0  0  0  0  0
   -2.5130   -1.6417   -1.8984 H   0  0  0  0  0  0  0  0  0  0  0  0
   -1.2844    0.7971    1.8996 H   0  0  0  0  0  0  0  0  0  0  0  0
   -3.2465    1.2705    3.2599 H   0  0  0  0  0  0  0  0  0  0  0  0
   -5.5316    0.4746    2.5542 H   0  0  0  0  0  0  0  0  0  0  0  0
   -5.7426   -0.7715    0.4957 H   0  0  0  0  0  0  0  0  0  0  0  0
    3.5095   -0.6970   -1.9977 H   0  0  0  0  0  0  0  0  0  0  0  0
    5.6293    0.1458   -1.1650 H   0  0  0  0  0  0  0  0  0  0  0  0
    5.6824    1.4249    0.9946 H   0  0  0  0  0  0  0  0  0  0  0  0
    3.5560    1.7661    2.1765 H   0  0  0  0  0  0  0  0  0  0  0  0
  1  2  1  0
  2  3  2  0
  3  4  1  0
  4  5  2  0
  5  6  1  0
  6  7  2  0
  6  8  1  0
  8  9  2  0
  9 10  1  0
 10 11  2  0
 11 12  1  0
 12 13  2  0
  4 14  1  0
 14 15  2  0
 15 16  1  0
 16 17  2  0
 17 18  1  0
 18 19  2  0
  7  2  1  0
 13  8  1  0
 19 14  1  0
  3 20  1  0
  7 21  1  0
  9 22  1  0
 10 23  1  0
 11 24  1  0
 12 25  1  0
 15 26  1  0
 16 27  1  0
 17 28  1  0
 18 29  1  0
M  END
>  <Ligand ID>  (1) 
LIG0002756

>  <Ligand>  (1) 
4'-Chloro-2,2':6',2''-terpyridine

>  <SMILES>  (1) 
Clc1cc(nc(c1)c1ccccn1)c1ccccn1

>  <CID>  (1) 
667748.0

>  <ChEMBL ID>  (1) 
nan

>  <InChiKey>  (1) 
AHEMFMCEBIJRMU-UHFFFAOYSA-N

>  <InChi>  (1) 
InChI=1S/C15H10ClN3/c16-11-9-14(12-5-1-3-7-17-12)19-15(10-11)13-6-2-4-8-18-13/h1-10H

>  <IUPAC Name>  (1) 
4-chloro-2,6-dipyridin-2-ylpyridine

$$$$
