
     RDKit          3D

 27 28  0  0  0  0  0  0  0  0999 V2000
   -2.7694    1.2282   -0.3858 C   0  0  0  0  0  0  0  0  0  0  0  0
   -2.2034   -0.0789    0.1157 C   0  0  0  0  0  0  0  0  0  0  0  0
   -3.0153   -1.0676    0.4830 C   0  0  0  0  0  0  0  0  0  0  0  0
   -0.7452   -0.2245    0.1850 C   0  0  1  0  0  0  0  0  0  0  0  0
   -0.0822   -0.0276   -1.1848 C   0  0  0  0  0  0  0  0  0  0  0  0
    1.2448   -0.7419   -1.0635 C   0  0  0  0  0  0  0  0  0  0  0  0
    2.0189   -0.2696    0.1146 C   0  0  0  0  0  0  0  0  0  0  0  0
    1.3849    0.3763    1.1634 C   0  0  0  0  0  0  0  0  0  0  0  0
   -0.0559    0.7756    1.0868 C   0  0  0  0  0  0  0  0  0  0  0  0
    1.6237   -1.0063    1.3280 O   0  0  0  0  0  0  0  0  0  0  0  0
    3.4982   -0.2240   -0.0691 C   0  0  0  0  0  0  0  0  0  0  0  0
   -2.0365    2.0307   -0.3124 H   0  0  0  0  0  0  0  0  0  0  0  0
   -3.6844    1.4043    0.2175 H   0  0  0  0  0  0  0  0  0  0  0  0
   -3.1231    1.0776   -1.4422 H   0  0  0  0  0  0  0  0  0  0  0  0
   -2.6894   -2.0209    0.8479 H   0  0  0  0  0  0  0  0  0  0  0  0
   -4.0939   -0.9102    0.4129 H   0  0  0  0  0  0  0  0  0  0  0  0
   -0.4816   -1.2362    0.5743 H   0  0  0  0  0  0  0  0  0  0  0  0
    0.1399    1.0529   -1.3524 H   0  0  0  0  0  0  0  0  0  0  0  0
   -0.6754   -0.4928   -1.9894 H   0  0  0  0  0  0  0  0  0  0  0  0
    1.8438   -0.6076   -2.0031 H   0  0  0  0  0  0  0  0  0  0  0  0
    1.0086   -1.8305   -0.9877 H   0  0  0  0  0  0  0  0  0  0  0  0
    1.9756    0.9853    1.8761 H   0  0  0  0  0  0  0  0  0  0  0  0
   -0.1706    1.7729    0.6542 H   0  0  0  0  0  0  0  0  0  0  0  0
   -0.5489    0.7351    2.0829 H   0  0  0  0  0  0  0  0  0  0  0  0
    3.7049    0.0059   -1.1498 H   0  0  0  0  0  0  0  0  0  0  0  0
    4.0218    0.5498    0.5235 H   0  0  0  0  0  0  0  0  0  0  0  0
    3.9098   -1.2560    0.1130 H   0  0  0  0  0  0  0  0  0  0  0  0
  1  2  1  0
  2  3  2  0
  2  4  1  0
  4  5  1  0
  5  6  1  0
  6  7  1  0
  7  8  1  0
  8  9  1  0
  8 10  1  0
  7 11  1  0
  9  4  1  0
 10  7  1  0
  1 12  1  0
  1 13  1  0
  1 14  1  0
  3 15  1  0
  3 16  1  0
  4 17  1  1
  5 18  1  0
  5 19  1  0
  6 20  1  0
  6 21  1  0
  8 22  1  0
  9 23  1  0
  9 24  1  0
 11 25  1  0
 11 26  1  0
 11 27  1  0
M  END
>  <Ligand ID>  (1) 
LIG0000207

>  <Ligand>  (1) 
(-)-limonene oxide

>  <SMILES>  (1) 
CC(=C)[C@H]1CCC2(C(C1)O2)C

>  <CID>  (1) 
10953718.0

>  <ChEMBL ID>  (1) 
nan

>  <InChiKey>  (1) 
CCEFMUBVSUDRLG-IDKOKCKLSA-N

>  <InChi>  (1) 
InChI=1S/C10H16O/c1-7(2)8-4-5-10(3)9(6-8)11-10/h8-9H,1,4-6H2,2-3H3/t8-,9?,10?/m0/s1

>  <IUPAC Name>  (1) 
(4S)-1-methyl-4-prop-1-en-2-yl-7-oxabicyclo[4.1.0]heptane

$$$$
