
     RDKit          3D

 54 57  0  0  0  0  0  0  0  0999 V2000
    1.1310   -2.2159   -0.7500 O   0  0  0  0  0  0  0  0  0  0  0  0
    1.0441   -0.9742   -0.3551 C   0  0  0  0  0  0  0  0  0  0  0  0
   -0.1672   -0.3135   -0.5750 N   0  0  0  0  0  0  0  0  0  0  0  0
   -0.5066    1.0307   -0.2345 C   0  0  0  0  0  0  0  0  0  0  0  0
    0.2241    2.0696   -1.0871 C   0  0  0  0  0  0  0  0  0  0  0  0
   -0.4890    3.3687   -0.9150 C   0  0  0  0  0  0  0  0  0  0  0  0
   -0.9362    3.7351    0.4464 C   0  0  0  0  0  0  0  0  0  0  0  0
   -1.2872    2.6289    1.3819 C   0  0  0  0  0  0  0  0  0  0  0  0
   -0.2936    1.4576    1.1754 C   0  0  0  0  0  0  0  0  0  0  0  0
   -1.2006   -1.0866   -1.2904 C   0  0  0  0  0  0  0  0  0  0  0  0
   -2.0996   -1.8888   -0.4295 C   0  0  0  0  0  0  0  0  0  0  0  0
   -2.9113   -1.1154    0.5661 C   0  0  0  0  0  0  0  0  0  0  0  0
   -3.9518   -1.9828    1.2573 C   0  0  0  0  0  0  0  0  0  0  0  0
   -4.7968   -2.7644    0.3061 C   0  0  0  0  0  0  0  0  0  0  0  0
   -4.4860   -2.2105   -1.0915 C   0  0  0  0  0  0  0  0  0  0  0  0
   -3.0545   -2.6190   -1.3619 C   0  0  0  0  0  0  0  0  0  0  0  0
    2.2587   -0.4919    0.2549 C   0  0  0  0  0  0  0  0  0  0  0  0
    2.5706   -0.0780    1.4849 N   0  0  0  0  0  0  0  0  0  0  0  0
    3.8486    0.2406    1.5664 O   0  0  0  0  0  0  0  0  0  0  0  0
    4.4430    0.0573    0.4115 C   0  0  0  0  0  0  0  0  0  0  0  0
    3.4585   -0.4124   -0.4604 C   0  0  0  0  0  0  0  0  0  0  0  0
    5.8548    0.2746    0.0298 C   0  0  0  0  0  0  0  0  0  0  0  0
    6.8640    0.9044    0.8756 C   0  0  0  0  0  0  0  0  0  0  0  0
    6.8236   -0.6056    0.8973 C   0  0  0  0  0  0  0  0  0  0  0  0
   -1.5903    1.2398   -0.5047 H   0  0  0  0  0  0  0  0  0  0  0  0
    1.2965    2.1172   -0.7687 H   0  0  0  0  0  0  0  0  0  0  0  0
    0.1034    1.7475   -2.1393 H   0  0  0  0  0  0  0  0  0  0  0  0
   -1.3080    3.4409   -1.6718 H   0  0  0  0  0  0  0  0  0  0  0  0
    0.2478    4.1706   -1.2378 H   0  0  0  0  0  0  0  0  0  0  0  0
   -1.8787    4.3519    0.3310 H   0  0  0  0  0  0  0  0  0  0  0  0
   -0.2331    4.4258    0.9568 H   0  0  0  0  0  0  0  0  0  0  0  0
   -2.2879    2.1810    1.2230 H   0  0  0  0  0  0  0  0  0  0  0  0
   -1.1560    2.9783    2.4317 H   0  0  0  0  0  0  0  0  0  0  0  0
   -0.5021    0.6960    1.9237 H   0  0  0  0  0  0  0  0  0  0  0  0
    0.7464    1.8955    1.3218 H   0  0  0  0  0  0  0  0  0  0  0  0
   -1.8412   -0.3804   -1.8736 H   0  0  0  0  0  0  0  0  0  0  0  0
   -0.7414   -1.7555   -2.0337 H   0  0  0  0  0  0  0  0  0  0  0  0
   -1.5503   -2.6829    0.1453 H   0  0  0  0  0  0  0  0  0  0  0  0
   -3.3975   -0.2000    0.1358 H   0  0  0  0  0  0  0  0  0  0  0  0
   -2.2922   -0.7149    1.4057 H   0  0  0  0  0  0  0  0  0  0  0  0
   -3.4031   -2.6301    1.9754 H   0  0  0  0  0  0  0  0  0  0  0  0
   -4.5806   -1.2839    1.8852 H   0  0  0  0  0  0  0  0  0  0  0  0
   -4.3770   -3.8061    0.2918 H   0  0  0  0  0  0  0  0  0  0  0  0
   -5.8632   -2.7852    0.5255 H   0  0  0  0  0  0  0  0  0  0  0  0
   -5.1777   -2.6810   -1.8384 H   0  0  0  0  0  0  0  0  0  0  0  0
   -4.6651   -1.1231   -1.1586 H   0  0  0  0  0  0  0  0  0  0  0  0
   -2.8449   -2.4005   -2.4411 H   0  0  0  0  0  0  0  0  0  0  0  0
   -3.0247   -3.7222   -1.2096 H   0  0  0  0  0  0  0  0  0  0  0  0
    3.6071   -0.6678   -1.5055 H   0  0  0  0  0  0  0  0  0  0  0  0
    6.0603    0.1782   -1.0698 H   0  0  0  0  0  0  0  0  0  0  0  0
    6.6287    1.4283    1.8263 H   0  0  0  0  0  0  0  0  0  0  0  0
    7.7716    1.2953    0.3637 H   0  0  0  0  0  0  0  0  0  0  0  0
    6.3715   -1.1138    1.7746 H   0  0  0  0  0  0  0  0  0  0  0  0
    7.5412   -1.2072    0.3332 H   0  0  0  0  0  0  0  0  0  0  0  0
  1  2  2  0
  2  3  1  0
  3  4  1  0
  4  5  1  0
  5  6  1  0
  6  7  1  0
  7  8  1  0
  8  9  1  0
  3 10  1  0
 10 11  1  0
 11 12  1  0
 12 13  1  0
 13 14  1  0
 14 15  1  0
 15 16  1  0
  2 17  1  0
 17 18  2  0
 18 19  1  0
 19 20  1  0
 20 21  2  0
 20 22  1  0
 22 23  1  0
 23 24  1  0
  9  4  1  0
 16 11  1  0
 21 17  1  0
 24 22  1  0
  4 25  1  0
  5 26  1  0
  5 27  1  0
  6 28  1  0
  6 29  1  0
  7 30  1  0
  7 31  1  0
  8 32  1  0
  8 33  1  0
  9 34  1  0
  9 35  1  0
 10 36  1  0
 10 37  1  0
 11 38  1  0
 12 39  1  0
 12 40  1  0
 13 41  1  0
 13 42  1  0
 14 43  1  0
 14 44  1  0
 15 45  1  0
 15 46  1  0
 16 47  1  0
 16 48  1  0
 21 49  1  0
 22 50  1  0
 23 51  1  0
 23 52  1  0
 24 53  1  0
 24 54  1  0
M  END
>  <Ligand ID>  (1) 
LIG0001358

>  <Ligand>  (1) 
CHEMBL1975200

>  <SMILES>  (1) 
O=C(N(C1CCCCC1)CC1CCCCC1)c1noc(c1)C1CC1

>  <CID>  (1) 
25110494.0

>  <ChEMBL ID>  (1) 
nan

>  <InChiKey>  (1) 
BFVBQCJQPCGPDH-UHFFFAOYSA-N

>  <InChi>  (1) 
InChI=1S/C20H30N2O2/c23-20(18-13-19(24-21-18)16-11-12-16)22(17-9-5-2-6-10-17)14-15-7-3-1-4-8-15/h13,15-17H,1-12,14H2

>  <IUPAC Name>  (1) 
N-cyclohexyl-N-(cyclohexylmethyl)-5-cyclopropyl-1,2-oxazole-3-carboxamide

$$$$
