
     RDKit          3D

 42 43  0  0  0  0  0  0  0  0999 V2000
    4.8901    1.2274   -1.9760 C   0  0  0  0  0  0  0  0  0  0  0  0
    3.9362    1.9232   -1.0594 C   0  0  0  0  0  0  0  0  0  0  0  0
    3.2496    1.0139   -0.0744 C   0  0  0  0  0  0  0  0  0  0  0  0
    2.4650   -0.0265   -0.7264 N   0  0  0  0  0  0  0  0  0  0  0  0
    1.0648   -0.1112   -0.4219 C   0  0  0  0  0  0  0  0  0  0  0  0
    0.6590    0.7472    0.3977 O   0  0  0  0  0  0  0  0  0  0  0  0
    0.2444   -1.1314   -1.0476 C   0  0  0  0  0  0  0  0  0  0  0  0
    0.7985   -2.0262   -1.9372 C   0  0  0  0  0  0  0  0  0  0  0  0
    0.0709   -3.0233   -2.5685 C   0  0  0  0  0  0  0  0  0  0  0  0
   -1.2540   -3.1313   -2.3034 C   0  0  0  0  0  0  0  0  0  0  0  0
   -1.8175   -2.2431   -1.4167 C   0  0  0  0  0  0  0  0  0  0  0  0
   -1.0939   -1.2416   -0.7807 C   0  0  0  0  0  0  0  0  0  0  0  0
   -1.8114   -0.4034    0.1058 N   0  0  0  0  0  0  0  0  0  0  0  0
   -3.2505   -0.6270    0.3057 C   0  0  0  0  0  0  0  0  0  0  0  0
   -3.8269    0.3427    1.2632 C   0  0  0  0  0  0  0  0  0  0  0  0
   -4.7637    1.1765    1.0276 N   0  0  0  0  0  0  0  0  0  0  0  0
   -5.0760    1.9668    2.1859 C   0  0  0  0  0  0  0  0  0  0  0  0
   -4.4694    1.1755    3.3041 C   0  0  0  0  0  0  0  0  0  0  0  0
   -3.3964    0.4742    2.6150 N   0  0  0  0  0  0  0  0  0  0  0  0
    4.3165    0.3154    0.7507 C   0  0  0  0  0  0  0  0  0  0  0  0
    4.8225    1.7155   -2.9821 H   0  0  0  0  0  0  0  0  0  0  0  0
    5.9216    1.3923   -1.5470 H   0  0  0  0  0  0  0  0  0  0  0  0
    4.7276    0.1353   -2.0434 H   0  0  0  0  0  0  0  0  0  0  0  0
    3.1035    2.4313   -1.6254 H   0  0  0  0  0  0  0  0  0  0  0  0
    4.4087    2.7253   -0.4442 H   0  0  0  0  0  0  0  0  0  0  0  0
    2.6583    1.6340    0.5971 H   0  0  0  0  0  0  0  0  0  0  0  0
    2.9646   -0.6443   -1.3718 H   0  0  0  0  0  0  0  0  0  0  0  0
    1.8624   -2.0143   -2.2120 H   0  0  0  0  0  0  0  0  0  0  0  0
    0.5263   -3.7121   -3.2610 H   0  0  0  0  0  0  0  0  0  0  0  0
   -1.8441   -3.9067   -2.7879 H   0  0  0  0  0  0  0  0  0  0  0  0
   -2.8812   -2.3660   -1.2339 H   0  0  0  0  0  0  0  0  0  0  0  0
   -1.4259    0.3850    0.6558 H   0  0  0  0  0  0  0  0  0  0  0  0
   -3.3972   -1.6483    0.6788 H   0  0  0  0  0  0  0  0  0  0  0  0
   -3.7553   -0.5261   -0.6772 H   0  0  0  0  0  0  0  0  0  0  0  0
   -6.1717    2.0248    2.3528 H   0  0  0  0  0  0  0  0  0  0  0  0
   -4.6117    2.9626    2.0496 H   0  0  0  0  0  0  0  0  0  0  0  0
   -5.1766    0.5141    3.8193 H   0  0  0  0  0  0  0  0  0  0  0  0
   -4.0436    1.9168    4.0179 H   0  0  0  0  0  0  0  0  0  0  0  0
   -2.4857    0.1369    3.0477 H   0  0  0  0  0  0  0  0  0  0  0  0
    3.8759   -0.2409    1.5989 H   0  0  0  0  0  0  0  0  0  0  0  0
    5.0424    1.0466    1.1669 H   0  0  0  0  0  0  0  0  0  0  0  0
    4.9438   -0.3596    0.1094 H   0  0  0  0  0  0  0  0  0  0  0  0
  1  2  1  0
  2  3  1  0
  3  4  1  0
  4  5  1  0
  5  6  2  0
  5  7  1  0
  7  8  2  0
  8  9  1  0
  9 10  2  0
 10 11  1  0
 11 12  2  0
 12 13  1  0
 13 14  1  0
 14 15  1  0
 15 16  2  0
 16 17  1  0
 17 18  1  0
 18 19  1  0
  3 20  1  0
 12  7  1  0
 19 15  1  0
  1 21  1  0
  1 22  1  0
  1 23  1  0
  2 24  1  0
  2 25  1  0
  3 26  1  0
  4 27  1  0
  8 28  1  0
  9 29  1  0
 10 30  1  0
 11 31  1  0
 13 32  1  0
 14 33  1  0
 14 34  1  0
 17 35  1  0
 17 36  1  0
 18 37  1  0
 18 38  1  0
 19 39  1  0
 20 40  1  0
 20 41  1  0
 20 42  1  0
M  END
>  <Ligand ID>  (1) 
LIG0004054

>  <Ligand>  (1) 
CHEMBL432192

>  <SMILES>  (1) 
CCC(NC(=O)c1ccccc1NCC1=NCCN1)C

>  <CID>  (1) 
22493411.0

>  <ChEMBL ID>  (1) 
nan

>  <InChiKey>  (1) 
BBAKYBVOEXDMMA-UHFFFAOYSA-N

>  <InChi>  (1) 
InChI=1S/C15H22N4O/c1-3-11(2)19-15(20)12-6-4-5-7-13(12)18-10-14-16-8-9-17-14/h4-7,11,18H,3,8-10H2,1-2H3,(H,16,17)(H,19,20)

>  <IUPAC Name>  (1) 
N-butan-2-yl-2-(4,5-dihydro-1H-imidazol-2-ylmethylamino)benzamide

$$$$
