
     RDKit          3D

 37 39  0  0  0  0  0  0  0  0999 V2000
    1.8161   -1.5951    1.8513 C   0  0  0  0  0  0  0  0  0  0  0  0
    1.5353   -1.2582    0.3873 C   0  0  0  0  0  0  0  0  0  0  0  0
    2.4649   -0.1234    0.0497 C   0  0  0  0  0  0  0  0  0  0  0  0
    3.3541   -0.1923   -0.8727 N   0  0  0  0  0  0  0  0  0  0  0  0
    4.0626    1.0611   -0.9281 C   0  0  0  0  0  0  0  0  0  0  0  0
    3.6737    1.8222    0.2995 C   0  0  0  0  0  0  0  0  0  0  0  0
    2.4652    1.1345    0.7029 N   0  0  0  0  0  0  0  0  0  0  0  0
    0.2344   -0.7402    0.2271 O   0  0  0  0  0  0  0  0  0  0  0  0
   -0.7515   -1.2749   -0.5775 C   0  0  0  0  0  0  0  0  0  0  0  0
   -0.6049   -2.4033   -1.3478 C   0  0  0  0  0  0  0  0  0  0  0  0
   -1.6244   -2.9073   -2.1437 C   0  0  0  0  0  0  0  0  0  0  0  0
   -2.8425   -2.2583   -2.1728 C   0  0  0  0  0  0  0  0  0  0  0  0
   -2.9880   -1.1256   -1.3989 C   0  0  0  0  0  0  0  0  0  0  0  0
   -1.9673   -0.6235   -0.6039 C   0  0  0  0  0  0  0  0  0  0  0  0
   -2.2564    0.5739    0.1578 C   0  0  0  0  0  0  0  0  0  0  0  0
   -2.9044    1.6787   -0.3616 C   0  0  0  0  0  0  0  0  0  0  0  0
   -3.1503    2.7892    0.4159 C   0  0  0  0  0  0  0  0  0  0  0  0
   -2.7436    2.8028    1.7392 C   0  0  0  0  0  0  0  0  0  0  0  0
   -2.1113    1.7280    2.2507 N   0  0  0  0  0  0  0  0  0  0  0  0
   -1.8676    0.6399    1.4978 C   0  0  0  0  0  0  0  0  0  0  0  0
    1.9755   -0.6529    2.4409 H   0  0  0  0  0  0  0  0  0  0  0  0
    0.9811   -2.1380    2.3103 H   0  0  0  0  0  0  0  0  0  0  0  0
    2.7815   -2.1173    1.8523 H   0  0  0  0  0  0  0  0  0  0  0  0
    1.7657   -2.1545   -0.1773 H   0  0  0  0  0  0  0  0  0  0  0  0
    5.1531    0.8196   -0.8497 H   0  0  0  0  0  0  0  0  0  0  0  0
    3.8589    1.6254   -1.8640 H   0  0  0  0  0  0  0  0  0  0  0  0
    3.4691    2.8875    0.0620 H   0  0  0  0  0  0  0  0  0  0  0  0
    4.4003    1.7052    1.1205 H   0  0  0  0  0  0  0  0  0  0  0  0
    1.7500    1.5252    1.3559 H   0  0  0  0  0  0  0  0  0  0  0  0
    0.3182   -2.9340   -1.3543 H   0  0  0  0  0  0  0  0  0  0  0  0
   -1.4592   -3.8049   -2.7363 H   0  0  0  0  0  0  0  0  0  0  0  0
   -3.6514   -2.6396   -2.7907 H   0  0  0  0  0  0  0  0  0  0  0  0
   -3.9653   -0.6326   -1.4427 H   0  0  0  0  0  0  0  0  0  0  0  0
   -3.2093    1.6352   -1.4006 H   0  0  0  0  0  0  0  0  0  0  0  0
   -3.6556    3.6592    0.0231 H   0  0  0  0  0  0  0  0  0  0  0  0
   -2.9492    3.6936    2.3364 H   0  0  0  0  0  0  0  0  0  0  0  0
   -1.3572   -0.2055    1.9419 H   0  0  0  0  0  0  0  0  0  0  0  0
  1  2  1  0
  2  3  1  0
  3  4  2  0
  4  5  1  0
  5  6  1  0
  6  7  1  0
  2  8  1  0
  8  9  1  0
  9 10  2  0
 10 11  1  0
 11 12  2  0
 12 13  1  0
 13 14  2  0
 14 15  1  0
 15 16  2  0
 16 17  1  0
 17 18  2  0
 18 19  1  0
 19 20  2  0
  7  3  1  0
 14  9  1  0
 20 15  1  0
  1 21  1  0
  1 22  1  0
  1 23  1  0
  2 24  1  0
  5 25  1  0
  5 26  1  0
  6 27  1  0
  6 28  1  0
  7 29  1  0
 10 30  1  0
 11 31  1  0
 12 32  1  0
 13 33  1  0
 16 34  1  0
 17 35  1  0
 18 36  1  0
 20 37  1  0
M  END
>  <Ligand ID>  (1) 
LIG0003517

>  <Ligand>  (1) 
CHEMBL373535

>  <SMILES>  (1) 
CC(C1=NCCN1)Oc1ccccc1c1cccnc1

>  <CID>  (1) 
11265631.0

>  <ChEMBL ID>  (1) 
nan

>  <InChiKey>  (1) 
AFWQDDUMQAQVSC-UHFFFAOYSA-N

>  <InChi>  (1) 
InChI=1S/C16H17N3O/c1-12(16-18-9-10-19-16)20-15-7-3-2-6-14(15)13-5-4-8-17-11-13/h2-8,11-12H,9-10H2,1H3,(H,18,19)

>  <IUPAC Name>  (1) 
3-[2-[1-(4,5-dihydro-1H-imidazol-2-yl)ethoxy]phenyl]pyridine

$$$$
