
     RDKit          3D

 35 37  0  0  0  0  0  0  0  0999 V2000
   -4.4618    1.5605   -0.7247 C   0  0  0  0  0  0  0  0  0  0  0  0
   -3.2991    0.7671   -0.4558 N   0  0  0  0  0  0  0  0  0  0  0  0
   -3.5850   -0.6217   -0.6139 C   0  0  0  0  0  0  0  0  0  0  0  0
   -2.6258   -1.5274    0.1326 C   0  0  0  0  0  0  0  0  0  0  0  0
   -1.3580   -0.8461    0.3001 N   0  0  0  0  0  0  0  0  0  0  0  0
   -1.2777    0.5181    0.7599 C   0  0  0  0  0  0  0  0  0  0  0  0
   -2.7202    1.0307    0.8466 C   0  0  0  0  0  0  0  0  0  0  0  0
   -0.1744   -1.5749   -0.0077 C   0  0  0  0  0  0  0  0  0  0  0  0
   -0.2726   -2.7665   -0.4082 O   0  0  0  0  0  0  0  0  0  0  0  0
    1.1645   -1.0112    0.1165 C   0  0  0  0  0  0  0  0  0  0  0  0
    1.7735   -0.4223    1.2057 C   0  0  0  0  0  0  0  0  0  0  0  0
    3.0552   -0.0446    0.8226 C   0  0  0  0  0  0  0  0  0  0  0  0
    3.2022   -0.4182   -0.5158 C   0  0  0  0  0  0  0  0  0  0  0  0
    2.0504   -0.9987   -0.9200 N   0  0  0  0  0  0  0  0  0  0  0  0
    4.3899   -0.1746   -1.2021 C   0  0  0  0  0  0  0  0  0  0  0  0
    5.4480    0.4514   -0.5443 C   0  0  0  0  0  0  0  0  0  0  0  0
    5.3184    0.8328    0.7968 C   0  0  0  0  0  0  0  0  0  0  0  0
    4.1201    0.5712    1.4405 C   0  0  0  0  0  0  0  0  0  0  0  0
    6.6589    1.6270    1.6331 Cl  0  0  0  0  0  0  0  0  0  0  0  0
   -5.3462    0.8898   -0.8173 H   0  0  0  0  0  0  0  0  0  0  0  0
   -4.6606    2.2664    0.1057 H   0  0  0  0  0  0  0  0  0  0  0  0
   -4.2722    2.1040   -1.6970 H   0  0  0  0  0  0  0  0  0  0  0  0
   -4.6338   -0.7857   -0.2466 H   0  0  0  0  0  0  0  0  0  0  0  0
   -3.5388   -0.8426   -1.7174 H   0  0  0  0  0  0  0  0  0  0  0  0
   -2.5082   -2.4446   -0.4812 H   0  0  0  0  0  0  0  0  0  0  0  0
   -3.0438   -1.8188    1.1040 H   0  0  0  0  0  0  0  0  0  0  0  0
   -0.6947    1.1677    0.0711 H   0  0  0  0  0  0  0  0  0  0  0  0
   -0.8928    0.5335    1.8033 H   0  0  0  0  0  0  0  0  0  0  0  0
   -2.7318    2.1092    1.1006 H   0  0  0  0  0  0  0  0  0  0  0  0
   -3.2175    0.4663    1.6635 H   0  0  0  0  0  0  0  0  0  0  0  0
    1.3349   -0.2827    2.1711 H   0  0  0  0  0  0  0  0  0  0  0  0
    1.9012   -1.3684   -1.8875 H   0  0  0  0  0  0  0  0  0  0  0  0
    4.5235   -0.4556   -2.2369 H   0  0  0  0  0  0  0  0  0  0  0  0
    6.3660    0.6420   -1.0677 H   0  0  0  0  0  0  0  0  0  0  0  0
    4.0082    0.8671    2.4955 H   0  0  0  0  0  0  0  0  0  0  0  0
  1  2  1  0
  2  3  1  0
  3  4  1  0
  4  5  1  0
  5  6  1  0
  6  7  1  0
  5  8  1  0
  8  9  2  0
  8 10  1  0
 10 11  2  0
 11 12  1  0
 12 13  2  0
 13 14  1  0
 13 15  1  0
 15 16  2  0
 16 17  1  0
 17 18  2  0
 17 19  1  0
  7  2  1  0
 14 10  1  0
 18 12  1  0
  1 20  1  0
  1 21  1  0
  1 22  1  0
  3 23  1  0
  3 24  1  0
  4 25  1  0
  4 26  1  0
  6 27  1  0
  6 28  1  0
  7 29  1  0
  7 30  1  0
 11 31  1  0
 14 32  1  0
 15 33  1  0
 16 34  1  0
 18 35  1  0
M  END
>  <Ligand ID>  (1) 
LIG0004632

>  <Ligand>  (1) 
JNJ-7777120

>  <SMILES>  (1) 
CN1CCN(CC1)C(=O)c1cc2c([nH]1)ccc(c2)Cl

>  <CID>  (1) 
4908365.0

>  <ChEMBL ID>  (1) 
nan

>  <InChiKey>  (1) 
HUQJRYMLJBBEDO-UHFFFAOYSA-N

>  <InChi>  (1) 
InChI=1S/C14H16ClN3O/c1-17-4-6-18(7-5-17)14(19)13-9-10-8-11(15)2-3-12(10)16-13/h2-3,8-9,16H,4-7H2,1H3

>  <IUPAC Name>  (1) 
(5-chloro-1H-indol-2-yl)-(4-methylpiperazin-1-yl)methanone

$$$$
