
     RDKit          3D

 39 40  0  0  0  0  0  0  0  0999 V2000
   -4.1529   -2.0698    0.0546 C   0  0  0  0  0  0  0  0  0  0  0  0
   -3.8344   -0.7773    0.1803 C   0  0  0  0  0  0  0  0  0  0  0  0
   -2.4121   -0.4478    0.5825 C   0  0  0  0  0  0  0  0  0  0  0  0
   -1.8359    0.3451   -0.4337 N   0  0  0  0  0  0  0  0  0  0  0  0
   -2.3920    1.6556   -0.4595 C   0  0  0  0  0  0  0  0  0  0  0  0
   -1.3409    2.7419   -0.3329 C   0  0  0  0  0  0  0  0  0  0  0  0
   -0.3189    2.4865    0.5232 O   0  0  0  0  0  0  0  0  0  0  0  0
    0.0967    1.1698    0.6410 C   0  0  1  0  0  0  0  0  0  0  0  0
   -0.4071    0.3987   -0.5141 C   0  0  1  0  0  0  0  0  0  0  0  0
    0.2040   -0.9381   -0.7580 C   0  0  0  0  0  0  0  0  0  0  0  0
    1.6414   -1.0143   -0.4559 C   0  0  0  0  0  0  0  0  0  0  0  0
    2.3260   -2.1321   -0.9326 C   0  0  0  0  0  0  0  0  0  0  0  0
    3.6802   -2.2557   -0.6789 C   0  0  0  0  0  0  0  0  0  0  0  0
    4.3266   -1.2616    0.0434 C   0  0  0  0  0  0  0  0  0  0  0  0
    3.6172   -0.1468    0.5111 C   0  0  0  0  0  0  0  0  0  0  0  0
    2.2646   -0.0153    0.2640 C   0  0  0  0  0  0  0  0  0  0  0  0
    1.5850    1.1842    0.7921 C   0  0  0  0  0  0  0  0  0  0  0  0
    4.3006    0.8331    1.2366 O   0  0  0  0  0  0  0  0  0  0  0  0
    0.6865    0.0000    0.0000 Cl  0  0  0  0  0  0  0  0  0  0  0  0
   -3.3993   -2.8451    0.2383 H   0  0  0  0  0  0  0  0  0  0  0  0
   -5.1388   -2.3838   -0.2283 H   0  0  0  0  0  0  0  0  0  0  0  0
   -4.5621    0.0024    0.0003 H   0  0  0  0  0  0  0  0  0  0  0  0
   -2.5503    0.1163    1.5584 H   0  0  0  0  0  0  0  0  0  0  0  0
   -1.8980   -1.3679    0.8709 H   0  0  0  0  0  0  0  0  0  0  0  0
   -3.1631    1.8262    0.3299 H   0  0  0  0  0  0  0  0  0  0  0  0
   -2.8655    1.8168   -1.4565 H   0  0  0  0  0  0  0  0  0  0  0  0
   -1.0029    3.0894   -1.3471 H   0  0  0  0  0  0  0  0  0  0  0  0
   -1.8870    3.6449    0.0649 H   0  0  0  0  0  0  0  0  0  0  0  0
   -0.4071    0.8056    1.5855 H   0  0  0  0  0  0  0  0  0  0  0  0
   -0.1883    1.0303   -1.4311 H   0  0  0  0  0  0  0  0  0  0  0  0
    0.1053   -1.1766   -1.8538 H   0  0  0  0  0  0  0  0  0  0  0  0
   -0.2720   -1.7885   -0.2441 H   0  0  0  0  0  0  0  0  0  0  0  0
    1.7848   -2.8862   -1.4961 H   0  0  0  0  0  0  0  0  0  0  0  0
    4.1780   -3.1291   -1.0574 H   0  0  0  0  0  0  0  0  0  0  0  0
    5.3817   -1.3870    0.2189 H   0  0  0  0  0  0  0  0  0  0  0  0
    2.0951    2.0759    0.3976 H   0  0  0  0  0  0  0  0  0  0  0  0
    1.7931    1.1753    1.9038 H   0  0  0  0  0  0  0  0  0  0  0  0
    4.6484    1.6252    0.6828 H   0  0  0  0  0  0  0  0  0  0  0  0
   -0.6865    0.0000    0.0000 H   0  0  0  0  0  0  0  0  0  0  0  0
  1  2  2  0
  2  3  1  0
  3  4  1  0
  4  5  1  0
  5  6  1  0
  6  7  1  0
  7  8  1  0
  8  9  1  0
  9 10  1  0
 10 11  1  0
 11 12  2  0
 12 13  1  0
 13 14  2  0
 14 15  1  0
 15 16  2  0
 16 17  1  0
 15 18  1  0
  9  4  1  0
 16 11  1  0
 17  8  1  0
  1 20  1  0
  1 21  1  0
  2 22  1  0
  3 23  1  0
  3 24  1  0
  5 25  1  0
  5 26  1  0
  6 27  1  0
  6 28  1  0
  8 29  1  1
  9 30  1  6
 10 31  1  0
 10 32  1  0
 12 33  1  0
 13 34  1  0
 14 35  1  0
 17 36  1  0
 17 37  1  0
 18 38  1  0
 19 39  1  0
M  END
>  <Ligand ID>  (1) 
LIG0005642

>  <Ligand>  (1) 
CHEMBL3099227

>  <SMILES>  (1) 
C=CCN1CCO[C@H]2[C@H]1Cc1cccc(c1C2)O.Cl

>  <CID>  (1) 
67005292.0

>  <ChEMBL ID>  (1) 
nan

>  <InChiKey>  (1) 
YNQAZTXVGQIQRN-SWYZXDRTSA-N

>  <InChi>  (1) 
InChI=1S/C15H19NO2.ClH/c1-2-6-16-7-8-18-15-10-12-11(9-13(15)16)4-3-5-14(12)17;/h2-5,13,15,17H,1,6-10H2;1H/t13-,15-;/m1./s1

>  <IUPAC Name>  (1) 
(4aR,10aR)-4-prop-2-enyl-2,3,4a,5,10,10a-hexahydrobenzo[g][1,4]benzoxazin-9-ol;hydrochloride

$$$$
