
     RDKit          3D

 90 94  0  0  0  0  0  0  0  0999 V2000
   13.7460   -2.0628   -1.0185 C   0  0  0  0  0  0  0  0  0  0  0  0
   13.6834   -1.7686    0.4669 C   0  0  0  0  0  0  0  0  0  0  0  0
   12.4533   -0.9180    0.7928 C   0  0  0  0  0  0  0  0  0  0  0  0
   11.1813   -1.6344    0.4001 C   0  0  0  0  0  0  0  0  0  0  0  0
    9.9481   -0.8288    0.7082 C   0  0  0  0  0  0  0  0  0  0  0  0
    9.9754    0.4690   -0.0322 C   0  0  0  0  0  0  0  0  0  0  0  0
    8.7730    1.2454    0.2694 N   0  0  0  0  0  0  0  0  0  0  0  0
    7.4650    0.7660   -0.0154 C   0  0  0  0  0  0  0  0  0  0  0  0
    7.2464   -0.3487   -0.5416 O   0  0  0  0  0  0  0  0  0  0  0  0
    6.3150    1.5601    0.2960 N   0  0  0  0  0  0  0  0  0  0  0  0
    5.0203    1.0131   -0.0191 C   0  0  0  0  0  0  0  0  0  0  0  0
    4.3127    0.2508    0.8934 C   0  0  0  0  0  0  0  0  0  0  0  0
    3.0646   -0.2446    0.5102 C   0  0  0  0  0  0  0  0  0  0  0  0
    2.5423    0.0161   -0.7483 C   0  0  0  0  0  0  0  0  0  0  0  0
    3.2984    0.7803   -1.6055 C   0  0  0  0  0  0  0  0  0  0  0  0
    4.5284    1.2942   -1.2883 C   0  0  0  0  0  0  0  0  0  0  0  0
    0.9953   -0.6012   -1.2092 S   0  0  0  0  0  0  0  0  0  0  0  0
    0.7584   -1.9275   -0.5476 O   0  0  0  0  0  0  0  0  0  0  0  0
    0.9545   -0.8653   -2.7026 O   0  0  0  0  0  0  0  0  0  0  0  0
   -0.3087    0.4623   -0.8674 N   0  0  0  0  0  0  0  0  0  0  0  0
   -0.1893    1.7169   -1.5826 C   0  0  0  0  0  0  0  0  0  0  0  0
   -1.6114    2.1933   -1.7981 C   0  0  0  0  0  0  0  0  0  0  0  0
   -2.3585    2.0963   -0.5034 C   0  0  0  0  0  0  0  0  0  0  0  0
   -1.3949    1.9303    0.6533 C   0  0  0  0  0  0  0  0  0  0  0  0
   -0.5847    0.6414    0.5243 C   0  0  0  0  0  0  0  0  0  0  0  0
   -3.3686    0.9725   -0.5531 C   0  0  0  0  0  0  0  0  0  0  0  0
   -4.0874    0.8853    0.7042 N   0  0  0  0  0  0  0  0  0  0  0  0
   -5.0688   -0.1854    0.6901 C   0  0  0  0  0  0  0  0  0  0  0  0
   -5.7476   -0.1710    2.0595 C   0  0  1  0  0  0  0  0  0  0  0  0
   -6.7929   -1.2280    2.1684 C   0  0  0  0  0  0  0  0  0  0  0  0
   -7.8482   -1.0482    1.2984 O   0  0  0  0  0  0  0  0  0  0  0  0
   -8.7660   -0.0582    1.2158 C   0  0  0  0  0  0  0  0  0  0  0  0
   -8.8973    1.0420    2.0150 C   0  0  0  0  0  0  0  0  0  0  0  0
   -9.8945    2.0037    1.8325 C   0  0  0  0  0  0  0  0  0  0  0  0
  -10.7935    1.8552    0.8105 C   0  0  0  0  0  0  0  0  0  0  0  0
  -10.6965    0.7658   -0.0123 C   0  0  0  0  0  0  0  0  0  0  0  0
   -9.7137   -0.1676    0.1791 C   0  0  0  0  0  0  0  0  0  0  0  0
   -9.8938   -1.1285   -0.8116 C   0  0  0  0  0  0  0  0  0  0  0  0
   -9.1988   -2.2861   -1.0962 C   0  0  0  0  0  0  0  0  0  0  0  0
   -9.5309   -3.1300   -2.1392 C   0  0  0  0  0  0  0  0  0  0  0  0
  -10.6263   -2.7543   -2.9133 C   0  0  0  0  0  0  0  0  0  0  0  0
  -11.3295   -1.5922   -2.6332 C   0  0  0  0  0  0  0  0  0  0  0  0
  -10.9760   -0.7674   -1.5848 C   0  0  0  0  0  0  0  0  0  0  0  0
  -11.4542    0.3979   -1.0777 N   0  0  0  0  0  0  0  0  0  0  0  0
   -4.6891   -0.3952    2.9718 O   0  0  0  0  0  0  0  0  0  0  0  0
   13.6998   -1.0956   -1.5948 H   0  0  0  0  0  0  0  0  0  0  0  0
   14.7323   -2.5577   -1.1993 H   0  0  0  0  0  0  0  0  0  0  0  0
   12.9228   -2.7548   -1.2861 H   0  0  0  0  0  0  0  0  0  0  0  0
   14.5591   -1.2069    0.8074 H   0  0  0  0  0  0  0  0  0  0  0  0
   13.5542   -2.7416    0.9828 H   0  0  0  0  0  0  0  0  0  0  0  0
   12.4689   -0.7784    1.9035 H   0  0  0  0  0  0  0  0  0  0  0  0
   12.5753    0.0427    0.2488 H   0  0  0  0  0  0  0  0  0  0  0  0
   11.1433   -2.6112    0.8831 H   0  0  0  0  0  0  0  0  0  0  0  0
   11.2186   -1.8062   -0.6961 H   0  0  0  0  0  0  0  0  0  0  0  0
    9.9640   -0.6030    1.8081 H   0  0  0  0  0  0  0  0  0  0  0  0
    9.0558   -1.4157    0.4635 H   0  0  0  0  0  0  0  0  0  0  0  0
   10.0034    0.3289   -1.1255 H   0  0  0  0  0  0  0  0  0  0  0  0
   10.8382    1.0927    0.2697 H   0  0  0  0  0  0  0  0  0  0  0  0
    8.8222    2.1984    0.7129 H   0  0  0  0  0  0  0  0  0  0  0  0
    6.4341    2.4891    0.7310 H   0  0  0  0  0  0  0  0  0  0  0  0
    4.7275    0.0489    1.8826 H   0  0  0  0  0  0  0  0  0  0  0  0
    2.5309   -0.8399    1.2465 H   0  0  0  0  0  0  0  0  0  0  0  0
    2.9274    1.0137   -2.6121 H   0  0  0  0  0  0  0  0  0  0  0  0
    5.1202    1.8987   -1.9735 H   0  0  0  0  0  0  0  0  0  0  0  0
    0.4094    2.4778   -1.0722 H   0  0  0  0  0  0  0  0  0  0  0  0
    0.2736    1.4514   -2.5734 H   0  0  0  0  0  0  0  0  0  0  0  0
   -1.6446    3.2094   -2.2403 H   0  0  0  0  0  0  0  0  0  0  0  0
   -2.0619    1.4830   -2.5490 H   0  0  0  0  0  0  0  0  0  0  0  0
   -2.9041    3.0329   -0.3280 H   0  0  0  0  0  0  0  0  0  0  0  0
   -0.6943    2.7874    0.6149 H   0  0  0  0  0  0  0  0  0  0  0  0
   -1.9263    2.0144    1.6104 H   0  0  0  0  0  0  0  0  0  0  0  0
   -1.2553   -0.1805    0.8596 H   0  0  0  0  0  0  0  0  0  0  0  0
    0.2908    0.7030    1.1832 H   0  0  0  0  0  0  0  0  0  0  0  0
   -4.1097    1.2314   -1.3370 H   0  0  0  0  0  0  0  0  0  0  0  0
   -2.9209    0.0123   -0.8327 H   0  0  0  0  0  0  0  0  0  0  0  0
   -4.5131    1.7849    0.9607 H   0  0  0  0  0  0  0  0  0  0  0  0
   -4.5255   -1.1632    0.6500 H   0  0  0  0  0  0  0  0  0  0  0  0
   -5.7728   -0.1245   -0.1399 H   0  0  0  0  0  0  0  0  0  0  0  0
   -6.0919    0.8465    2.2222 H   0  0  0  0  0  0  0  0  0  0  0  0
   -7.1243   -1.2113    3.2578 H   0  0  0  0  0  0  0  0  0  0  0  0
   -6.3471   -2.2595    2.0316 H   0  0  0  0  0  0  0  0  0  0  0  0
   -8.2415    1.2139    2.8454 H   0  0  0  0  0  0  0  0  0  0  0  0
   -9.9663    2.8618    2.4853 H   0  0  0  0  0  0  0  0  0  0  0  0
  -11.5762    2.5760    0.6379 H   0  0  0  0  0  0  0  0  0  0  0  0
   -8.3556   -2.5227   -0.4557 H   0  0  0  0  0  0  0  0  0  0  0  0
   -8.9869   -4.0408   -2.3659 H   0  0  0  0  0  0  0  0  0  0  0  0
  -10.9114   -3.4084   -3.7494 H   0  0  0  0  0  0  0  0  0  0  0  0
  -12.1864   -1.3224   -3.2594 H   0  0  0  0  0  0  0  0  0  0  0  0
  -12.2814    0.9015   -1.4769 H   0  0  0  0  0  0  0  0  0  0  0  0
   -4.3152   -1.3026    2.8822 H   0  0  0  0  0  0  0  0  0  0  0  0
  1  2  1  0
  2  3  1  0
  3  4  1  0
  4  5  1  0
  5  6  1  0
  6  7  1  0
  7  8  1  0
  8  9  2  0
  8 10  1  0
 10 11  1  0
 11 12  2  0
 12 13  1  0
 13 14  2  0
 14 15  1  0
 15 16  2  0
 14 17  1  0
 17 18  2  0
 17 19  2  0
 17 20  1  0
 20 21  1  0
 21 22  1  0
 22 23  1  0
 23 24  1  0
 24 25  1  0
 23 26  1  0
 26 27  1  0
 27 28  1  0
 28 29  1  0
 29 30  1  0
 30 31  1  0
 31 32  1  0
 32 33  2  0
 33 34  1  0
 34 35  2  0
 35 36  1  0
 36 37  2  0
 37 38  1  0
 38 39  2  0
 39 40  1  0
 40 41  2  0
 41 42  1  0
 42 43  2  0
 43 44  1  0
 29 45  1  0
 16 11  1  0
 25 20  1  0
 37 32  1  0
 43 38  1  0
 44 36  1  0
  1 46  1  0
  1 47  1  0
  1 48  1  0
  2 49  1  0
  2 50  1  0
  3 51  1  0
  3 52  1  0
  4 53  1  0
  4 54  1  0
  5 55  1  0
  5 56  1  0
  6 57  1  0
  6 58  1  0
  7 59  1  0
 10 60  1  0
 12 61  1  0
 13 62  1  0
 15 63  1  0
 16 64  1  0
 21 65  1  0
 21 66  1  0
 22 67  1  0
 22 68  1  0
 23 69  1  0
 24 70  1  0
 24 71  1  0
 25 72  1  0
 25 73  1  0
 26 74  1  0
 26 75  1  0
 27 76  1  0
 28 77  1  0
 28 78  1  0
 29 79  1  1
 30 80  1  0
 30 81  1  0
 33 82  1  0
 34 83  1  0
 35 84  1  0
 39 85  1  0
 40 86  1  0
 41 87  1  0
 42 88  1  0
 44 89  1  0
 45 90  1  0
M  END
>  <Ligand ID>  (1) 
LIG0004306

>  <Ligand>  (1) 
CHEMBL319409

>  <SMILES>  (1) 
CCCCCCNC(=O)Nc1ccc(cc1)S(=O)(=O)N1CCC(CC1)CNC[C@@H](COc1cccc2c1c1ccccc1[nH]2)O

>  <CID>  (1) 
10304786.0

>  <ChEMBL ID>  (1) 
nan

>  <InChiKey>  (1) 
OZLHOOXTNYHATN-MHZLTWQESA-N

>  <InChi>  (1) 
InChI=1S/C34H45N5O5S/c1-2-3-4-7-19-36-34(41)37-26-13-15-28(16-14-26)45(42,43)39-20-17-25(18-21-39)22-35-23-27(40)24-44-32-12-8-11-31-33(32)29-9-5-6-10-30(29)38-31/h5-6,8-16,25,27,35,38,40H,2-4,7,17-24H2,1H3,(H2,36,37,41)/t27-/m0/s1

>  <IUPAC Name>  (1) 
1-[4-[4-[[[(2S)-3-(9H-carbazol-4-yloxy)-2-hydroxypropyl]amino]methyl]piperidin-1-yl]sulfonylphenyl]-3-hexylurea

$$$$
