
     RDKit          3D

 25 26  0  0  0  0  0  0  0  0999 V2000
    3.4634   -0.6201    1.2868 O   0  0  0  0  0  0  0  0  0  0  0  0
    3.4153   -0.0506    0.0000 C   0  0  0  0  0  0  0  0  0  0  0  0
    4.4466   -0.0402   -0.6887 O   0  0  0  0  0  0  0  0  0  0  0  0
    2.1552    0.5045   -0.4725 C   0  0  0  0  0  0  0  0  0  0  0  0
    1.9907    1.0519   -1.6333 N   0  0  0  0  0  0  0  0  0  0  0  0
    0.7050    1.4795   -1.7942 O   0  0  0  0  0  0  0  0  0  0  0  0
    0.1451    1.6357   -0.5092 C   0  0  2  0  0  0  0  0  0  0  0  0
    0.8712    0.5483    0.2537 C   0  0  1  0  0  0  0  0  0  0  0  0
    0.0692   -0.6872    0.0053 C   0  0  0  0  0  0  0  0  0  0  0  0
   -1.3608   -0.2444   -0.2539 C   0  0  1  0  0  0  0  0  0  0  0  0
   -1.2885    1.2268   -0.4400 C   0  0  0  0  0  0  0  0  0  0  0  0
   -1.7978   -0.9407   -1.4072 N   0  0  0  0  0  0  0  0  0  0  0  0
   -2.2396   -0.6410    0.8825 C   0  0  0  0  0  0  0  0  0  0  0  0
   -2.0076   -0.1178    2.0240 O   0  0  0  0  0  0  0  0  0  0  0  0
   -3.2912   -1.5584    0.7174 O   0  0  0  0  0  0  0  0  0  0  0  0
    4.1289   -1.3468    1.4902 H   0  0  0  0  0  0  0  0  0  0  0  0
    0.3439    2.6376   -0.0829 H   0  0  0  0  0  0  0  0  0  0  0  0
    0.9850    0.7933    1.3245 H   0  0  0  0  0  0  0  0  0  0  0  0
    0.0570   -1.3828    0.8689 H   0  0  0  0  0  0  0  0  0  0  0  0
    0.5115   -1.2248   -0.8585 H   0  0  0  0  0  0  0  0  0  0  0  0
   -1.6860    1.6857    0.5108 H   0  0  0  0  0  0  0  0  0  0  0  0
   -1.9185    1.6261   -1.2563 H   0  0  0  0  0  0  0  0  0  0  0  0
   -1.6308   -1.9316   -1.4559 H   0  0  0  0  0  0  0  0  0  0  0  0
   -2.3018   -0.4482   -2.1358 H   0  0  0  0  0  0  0  0  0  0  0  0
   -3.7654   -1.9549    1.5377 H   0  0  0  0  0  0  0  0  0  0  0  0
  1  2  1  0
  2  3  2  0
  2  4  1  0
  4  5  2  0
  5  6  1  0
  6  7  1  0
  7  8  1  0
  8  9  1  0
  9 10  1  0
 10 11  1  0
 10 12  1  6
 10 13  1  0
 13 14  2  0
 13 15  1  0
  8  4  1  0
 11  7  1  0
  1 16  1  0
  7 17  1  1
  8 18  1  1
  9 19  1  0
  9 20  1  0
 11 21  1  0
 11 22  1  0
 12 23  1  0
 12 24  1  0
 15 25  1  0
M  END
>  <Ligand ID>  (1) 
LIG0001191

>  <Ligand>  (1) 
CHEMBL322887

>  <SMILES>  (1) 
OC(=O)C1=NO[C@@H]2[C@H]1C[C@@](C2)(N)C(=O)O

>  <CID>  (1) 
10976811.0

>  <ChEMBL ID>  (1) 
nan

>  <InChiKey>  (1) 
NTVFQKSMRLANLZ-ZPLJKJSBSA-N

>  <InChi>  (1) 
InChI=1S/C8H10N2O5/c9-8(7(13)14)1-3-4(2-8)15-10-5(3)6(11)12/h3-4H,1-2,9H2,(H,11,12)(H,13,14)/t3-,4+,8+/m1/s1

>  <IUPAC Name>  (1) 
(3aS,5S,6aS)-5-amino-3a,4,6,6a-tetrahydrocyclopenta[d][1,2]oxazole-3,5-dicarboxylic acid

$$$$
