
     RDKit          3D

 49 50  0  0  0  0  0  0  0  0999 V2000
   -5.8459    2.2814    1.5486 N   0  0  0  0  0  0  0  0  0  0  0  0
   -4.7900    1.3111    1.4261 C   0  0  0  0  0  0  0  0  0  0  0  0
   -4.9002    0.1720    1.9465 O   0  0  0  0  0  0  0  0  0  0  0  0
   -3.6264    1.7093    0.6906 N   0  0  0  0  0  0  0  0  0  0  0  0
   -2.4915    0.8435    0.4864 C   0  0  2  0  0  0  0  0  0  0  0  0
   -1.2201    1.3693    1.0543 C   0  0  2  0  0  0  0  0  0  0  0  0
   -1.2974    2.6124    1.6455 O   0  0  0  0  0  0  0  0  0  0  0  0
   -0.2905    1.3111   -0.1349 C   0  0  2  0  0  0  0  0  0  0  0  0
   -0.8305    0.3877   -1.0146 O   0  0  0  0  0  0  0  0  0  0  0  0
   -2.1894    0.5750   -0.9464 C   0  0  1  0  0  0  0  0  0  0  0  0
   -2.9466   -0.5386   -1.4785 N   0  0  0  0  0  0  0  0  0  0  0  0
   -2.8428   -1.7352   -0.8536 C   0  0  0  0  0  0  0  0  0  0  0  0
   -3.5288   -2.8414   -1.2960 C   0  0  0  0  0  0  0  0  0  0  0  0
   -4.3418   -2.7344   -2.4000 C   0  0  0  0  0  0  0  0  0  0  0  0
   -4.9889   -3.7393   -2.8331 O   0  0  0  0  0  0  0  0  0  0  0  0
   -4.4370   -1.5295   -3.0171 N   0  0  0  0  0  0  0  0  0  0  0  0
   -3.7447   -0.4475   -2.5568 C   0  0  0  0  0  0  0  0  0  0  0  0
   -3.8504    0.6743   -3.1535 O   0  0  0  0  0  0  0  0  0  0  0  0
    1.0935    0.8445    0.2461 C   0  0  0  0  0  0  0  0  0  0  0  0
    1.0432   -0.3872    0.8488 O   0  0  0  0  0  0  0  0  0  0  0  0
    2.5715   -0.9548    1.2990 P   0  0  0  0  0  0  0  0  0  0  0  0
    2.4233   -2.2018    2.1398 O   0  0  0  0  0  0  0  0  0  0  0  0
    3.4383   -1.3295   -0.0764 O   0  0  0  0  0  0  0  0  0  0  0  0
    4.9178   -0.4727   -0.0958 P   0  0  0  0  0  0  0  0  0  0  0  0
    5.5282   -0.5526   -1.4539 O   0  0  0  0  0  0  0  0  0  0  0  0
    5.8813   -1.1681    1.1043 O   0  0  0  0  0  0  0  0  0  0  0  0
    7.4551   -1.3183    0.4987 P   0  0  0  0  0  0  0  0  0  0  0  0
    8.1953   -2.2991    1.3795 O   0  0  0  0  0  0  0  0  0  0  0  0
    8.1601    0.2173    0.5256 O   0  0  0  0  0  0  0  0  0  0  0  0
    7.3997   -1.8727   -1.1001 O   0  0  0  0  0  0  0  0  0  0  0  0
    4.6115    1.1708    0.2526 O   0  0  0  0  0  0  0  0  0  0  0  0
    3.3564    0.2038    2.2545 O   0  0  0  0  0  0  0  0  0  0  0  0
   -6.8114    1.9587    1.7903 H   0  0  0  0  0  0  0  0  0  0  0  0
   -5.6666    3.2873    1.4023 H   0  0  0  0  0  0  0  0  0  0  0  0
   -3.5871    2.6862    0.2714 H   0  0  0  0  0  0  0  0  0  0  0  0
   -2.6977   -0.1384    0.9898 H   0  0  0  0  0  0  0  0  0  0  0  0
   -0.7786    0.6879    1.8363 H   0  0  0  0  0  0  0  0  0  0  0  0
   -1.5173    2.4976    2.6029 H   0  0  0  0  0  0  0  0  0  0  0  0
   -0.2272    2.3448   -0.5464 H   0  0  0  0  0  0  0  0  0  0  0  0
   -2.4492    1.4573   -1.5667 H   0  0  0  0  0  0  0  0  0  0  0  0
   -2.2104   -1.8722    0.0272 H   0  0  0  0  0  0  0  0  0  0  0  0
   -3.4246   -3.7941   -0.7703 H   0  0  0  0  0  0  0  0  0  0  0  0
   -5.0593   -1.4256   -3.8712 H   0  0  0  0  0  0  0  0  0  0  0  0
    1.6304    1.6125    0.8507 H   0  0  0  0  0  0  0  0  0  0  0  0
    1.6716    0.7762   -0.7097 H   0  0  0  0  0  0  0  0  0  0  0  0
    8.3187    0.5754   -0.3839 H   0  0  0  0  0  0  0  0  0  0  0  0
    6.7475   -2.6276   -1.1825 H   0  0  0  0  0  0  0  0  0  0  0  0
    5.4752    1.5748    0.5239 H   0  0  0  0  0  0  0  0  0  0  0  0
    2.6735    0.8383    2.5914 H   0  0  0  0  0  0  0  0  0  0  0  0
  1  2  1  0
  2  3  2  0
  2  4  1  0
  4  5  1  0
  5  6  1  0
  6  7  1  0
  6  8  1  0
  8  9  1  0
  9 10  1  0
 10 11  1  0
 11 12  1  0
 12 13  2  0
 13 14  1  0
 14 15  2  0
 14 16  1  0
 16 17  1  0
 17 18  2  0
  8 19  1  0
 19 20  1  0
 20 21  1  0
 21 22  2  0
 21 23  1  0
 23 24  1  0
 24 25  2  0
 24 26  1  0
 26 27  1  0
 27 28  2  0
 27 29  1  0
 27 30  1  0
 24 31  1  0
 21 32  1  0
 10  5  1  0
 17 11  1  0
  1 33  1  0
  1 34  1  0
  4 35  1  0
  5 36  1  1
  6 37  1  1
  7 38  1  0
  8 39  1  6
 10 40  1  6
 12 41  1  0
 13 42  1  0
 16 43  1  0
 19 44  1  0
 19 45  1  0
 29 46  1  0
 30 47  1  0
 31 48  1  0
 32 49  1  0
M  END
>  <Ligand ID>  (1) 
LIG0002816

>  <Ligand>  (1) 
CHEMBL484295

>  <SMILES>  (1) 
NC(=O)N[C@@H]1[C@H](O)[C@H](O[C@H]1n1ccc(=O)[nH]c1=O)COP(=O)(OP(=O)(OP(=O)(O)O)O)O

>  <CID>  (1) 
44586005.0

>  <ChEMBL ID>  (1) 
nan

>  <InChiKey>  (1) 
FJFHGGAQNNVYRH-XVFCMESISA-N

>  <InChi>  (1) 
InChI=1S/C10H17N4O15P3/c11-9(17)13-6-7(16)4(27-8(6)14-2-1-5(15)12-10(14)18)3-26-31(22,23)29-32(24,25)28-30(19,20)21/h1-2,4,6-8,16H,3H2,(H,22,23)(H,24,25)(H3,11,13,17)(H,12,15,18)(H2,19,20,21)/t4-,6-,7-,8-/m1/s1

>  <IUPAC Name>  (1) 
[[(2R,3S,4R,5R)-4-(carbamoylamino)-5-(2,4-dioxopyrimidin-1-yl)-3-hydroxyoxolan-2-yl]methoxy-hydroxyphosphoryl] phosphono hydrogen phosphate

$$$$
