
     RDKit          3D

100103  0  0  0  0  0  0  0  0999 V2000
  -10.2791    0.5398    0.6294 O   0  0  0  0  0  0  0  0  0  0  0  0
  -10.4583   -0.3993    1.4782 C   0  0  0  0  0  0  0  0  0  0  0  0
   -9.4593   -0.6908    2.4468 N   0  0  0  0  0  0  0  0  0  0  0  0
   -8.2053    0.0231    2.5492 C   0  0  0  0  0  0  0  0  0  0  0  0
   -7.4662   -0.1326    1.2644 C   0  0  0  0  0  0  0  0  0  0  0  0
   -7.9377   -0.7927    0.2953 O   0  0  0  0  0  0  0  0  0  0  0  0
   -6.1888    0.5121    1.1974 N   0  0  0  0  0  0  0  0  0  0  0  0
   -5.3527    0.4523    0.0035 C   0  0  2  0  0  0  0  0  0  0  0  0
   -4.2087   -0.4458    0.1803 C   0  0  0  0  0  0  0  0  0  0  0  0
   -4.2181   -1.1815    1.2320 O   0  0  0  0  0  0  0  0  0  0  0  0
   -3.1064   -0.5924   -0.6699 N   0  0  0  0  0  0  0  0  0  0  0  0
   -2.0240   -1.5102   -0.4521 C   0  0  2  0  0  0  0  0  0  0  0  0
   -0.8017   -0.8142    0.0883 C   0  0  0  0  0  0  0  0  0  0  0  0
   -0.9176    0.4008    0.3833 O   0  0  0  0  0  0  0  0  0  0  0  0
    0.4262   -1.4574    0.2687 N   0  0  0  0  0  0  0  0  0  0  0  0
    1.5500   -0.6577    0.8243 C   0  0  2  0  0  0  0  0  0  0  0  0
    2.5587   -0.4198   -0.2247 C   0  0  0  0  0  0  0  0  0  0  0  0
    2.4769   -1.0043   -1.3477 O   0  0  0  0  0  0  0  0  0  0  0  0
    3.6484    0.4599   -0.0474 N   0  0  0  0  0  0  0  0  0  0  0  0
    4.6414    0.6968   -1.0992 C   0  0  2  0  0  0  0  0  0  0  0  0
    6.0010    0.3379   -0.7420 C   0  0  0  0  0  0  0  0  0  0  0  0
    6.8993    0.3685   -1.6168 O   0  0  0  0  0  0  0  0  0  0  0  0
    6.4181   -0.0645    0.5761 N   0  0  0  0  0  0  0  0  0  0  0  0
    4.5135    2.1641   -1.4035 C   0  0  0  0  0  0  0  0  0  0  0  0
    5.3867    2.7381   -2.4063 C   0  0  0  0  0  0  0  0  0  0  0  0
    5.0253    2.8703   -3.7552 C   0  0  0  0  0  0  0  0  0  0  0  0
    6.0401    3.4062   -4.4438 N   0  0  0  0  0  0  0  0  0  0  0  0
    7.0761    3.6429   -3.6144 C   0  0  0  0  0  0  0  0  0  0  0  0
    6.6750    3.2323   -2.3593 C   0  0  0  0  0  0  0  0  0  0  0  0
    7.5711    3.3912   -1.3234 C   0  0  0  0  0  0  0  0  0  0  0  0
    8.8117    3.9399   -1.5599 C   0  0  0  0  0  0  0  0  0  0  0  0
    9.2274    4.3532   -2.8047 C   0  0  0  0  0  0  0  0  0  0  0  0
    8.3289    4.1963   -3.8523 C   0  0  0  0  0  0  0  0  0  0  0  0
    2.1198   -1.5483    1.8936 C   0  0  0  0  0  0  0  0  0  0  0  0
    3.2817   -1.0381    2.6578 C   0  0  0  0  0  0  0  0  0  0  0  0
    3.6164   -2.1317    3.7000 C   0  0  0  0  0  0  0  0  0  0  0  0
    3.9454   -3.3758    3.0319 N   0  0  0  0  0  0  0  0  0  0  0  0
    3.9643   -4.4297    3.7864 C   0  0  0  0  0  0  0  0  0  0  0  0
    3.6830   -4.3767    5.1797 N   0  0  0  0  0  0  0  0  0  0  0  0
    4.2803   -5.6955    3.1990 N   0  0  0  0  0  0  0  0  0  0  0  0
   -1.6358   -2.1531   -1.7432 C   0  0  0  0  0  0  0  0  0  0  0  0
   -2.8108   -2.8809   -2.2876 C   0  0  0  0  0  0  0  0  0  0  0  0
   -3.0950   -4.1966   -1.9700 C   0  0  0  0  0  0  0  0  0  0  0  0
   -4.1872   -4.8666   -2.4887 C   0  0  0  0  0  0  0  0  0  0  0  0
   -5.0438   -4.2233   -3.3588 C   0  0  0  0  0  0  0  0  0  0  0  0
   -4.7900   -2.9140   -3.6957 C   0  0  0  0  0  0  0  0  0  0  0  0
   -3.6874   -2.2621   -3.1626 C   0  0  0  0  0  0  0  0  0  0  0  0
   -5.1169    1.7541   -0.6576 C   0  0  0  0  0  0  0  0  0  0  0  0
   -4.4445    2.7958    0.1152 C   0  0  0  0  0  0  0  0  0  0  0  0
   -3.0606    2.9101   -0.0281 C   0  0  0  0  0  0  0  0  0  0  0  0
   -2.3419    3.8508    0.6627 C   0  0  0  0  0  0  0  0  0  0  0  0
   -2.9309    4.7209    1.5209 C   0  0  0  0  0  0  0  0  0  0  0  0
   -4.3164    4.6212    1.6772 C   0  0  0  0  0  0  0  0  0  0  0  0
   -5.0587    3.6732    0.9844 C   0  0  0  0  0  0  0  0  0  0  0  0
   -1.9853    5.9144    2.3890 Cl  0  0  0  0  0  0  0  0  0  0  0  0
  -11.3951   -0.9392    1.4088 H   0  0  0  0  0  0  0  0  0  0  0  0
   -9.6862   -1.4794    3.1088 H   0  0  0  0  0  0  0  0  0  0  0  0
   -7.6658   -0.3406    3.4238 H   0  0  0  0  0  0  0  0  0  0  0  0
   -8.4640    1.1051    2.7164 H   0  0  0  0  0  0  0  0  0  0  0  0
   -5.8198    1.0574    2.0317 H   0  0  0  0  0  0  0  0  0  0  0  0
   -6.0277   -0.1273   -0.7299 H   0  0  0  0  0  0  0  0  0  0  0  0
   -3.0685    0.0172   -1.5239 H   0  0  0  0  0  0  0  0  0  0  0  0
   -2.3133   -2.3258    0.2695 H   0  0  0  0  0  0  0  0  0  0  0  0
    0.5522   -2.4600    0.0237 H   0  0  0  0  0  0  0  0  0  0  0  0
    1.1040    0.2571    1.2085 H   0  0  0  0  0  0  0  0  0  0  0  0
    3.7967    0.9991    0.8328 H   0  0  0  0  0  0  0  0  0  0  0  0
    4.3455    0.1071   -2.0218 H   0  0  0  0  0  0  0  0  0  0  0  0
    6.4220   -1.1069    0.7594 H   0  0  0  0  0  0  0  0  0  0  0  0
    6.7000    0.6254    1.3081 H   0  0  0  0  0  0  0  0  0  0  0  0
    3.4292    2.3953   -1.6729 H   0  0  0  0  0  0  0  0  0  0  0  0
    4.6418    2.7734   -0.4580 H   0  0  0  0  0  0  0  0  0  0  0  0
    4.0770    2.5942   -4.2117 H   0  0  0  0  0  0  0  0  0  0  0  0
    6.0941    3.6383   -5.4768 H   0  0  0  0  0  0  0  0  0  0  0  0
    7.2337    3.0635   -0.3464 H   0  0  0  0  0  0  0  0  0  0  0  0
    9.5138    4.0622   -0.7405 H   0  0  0  0  0  0  0  0  0  0  0  0
   10.2031    4.7827   -2.9760 H   0  0  0  0  0  0  0  0  0  0  0  0
    8.6122    4.5067   -4.8496 H   0  0  0  0  0  0  0  0  0  0  0  0
    1.3406   -1.8410    2.6471 H   0  0  0  0  0  0  0  0  0  0  0  0
    2.4177   -2.5534    1.4559 H   0  0  0  0  0  0  0  0  0  0  0  0
    3.0275   -0.1322    3.2307 H   0  0  0  0  0  0  0  0  0  0  0  0
    4.1965   -0.9310    2.0322 H   0  0  0  0  0  0  0  0  0  0  0  0
    2.7060   -2.2991    4.2979 H   0  0  0  0  0  0  0  0  0  0  0  0
    4.4737   -1.8097    4.2815 H   0  0  0  0  0  0  0  0  0  0  0  0
    4.3617   -4.8094    5.8788 H   0  0  0  0  0  0  0  0  0  0  0  0
    2.8291   -3.9259    5.5778 H   0  0  0  0  0  0  0  0  0  0  0  0
    3.7673   -5.9847    2.3358 H   0  0  0  0  0  0  0  0  0  0  0  0
    5.0210   -6.3206    3.6423 H   0  0  0  0  0  0  0  0  0  0  0  0
   -1.3251   -1.3198   -2.4262 H   0  0  0  0  0  0  0  0  0  0  0  0
   -0.7766   -2.8293   -1.5482 H   0  0  0  0  0  0  0  0  0  0  0  0
   -2.4665   -4.7471   -1.3005 H   0  0  0  0  0  0  0  0  0  0  0  0
   -4.4285   -5.8936   -2.2577 H   0  0  0  0  0  0  0  0  0  0  0  0
   -5.9145   -4.6795   -3.8024 H   0  0  0  0  0  0  0  0  0  0  0  0
   -5.4670   -2.4030   -4.3839 H   0  0  0  0  0  0  0  0  0  0  0  0
   -3.5562   -1.2362   -3.4792 H   0  0  0  0  0  0  0  0  0  0  0  0
   -6.1204    2.1963   -0.9515 H   0  0  0  0  0  0  0  0  0  0  0  0
   -4.6203    1.6049   -1.6461 H   0  0  0  0  0  0  0  0  0  0  0  0
   -2.5592    2.2409   -0.7109 H   0  0  0  0  0  0  0  0  0  0  0  0
   -1.2672    3.8686    0.4884 H   0  0  0  0  0  0  0  0  0  0  0  0
   -4.8273    5.3122    2.3648 H   0  0  0  0  0  0  0  0  0  0  0  0
   -6.1346    3.5765    1.0897 H   0  0  0  0  0  0  0  0  0  0  0  0
  1  2  2  0
  2  3  1  0
  3  4  1  0
  4  5  1  0
  5  6  2  0
  5  7  1  0
  7  8  1  0
  8  9  1  0
  9 10  2  0
  9 11  1  0
 11 12  1  0
 12 13  1  0
 13 14  2  0
 13 15  1  0
 15 16  1  0
 16 17  1  0
 17 18  2  0
 17 19  1  0
 19 20  1  0
 20 21  1  0
 21 22  2  0
 21 23  1  0
 20 24  1  0
 24 25  1  0
 25 26  2  0
 26 27  1  0
 27 28  1  0
 28 29  2  0
 29 30  1  0
 30 31  2  0
 31 32  1  0
 32 33  2  0
 16 34  1  0
 34 35  1  0
 35 36  1  0
 36 37  1  0
 37 38  2  3
 38 39  1  0
 38 40  1  0
 12 41  1  0
 41 42  1  0
 42 43  2  0
 43 44  1  0
 44 45  2  0
 45 46  1  0
 46 47  2  0
  8 48  1  0
 48 49  1  0
 49 50  2  0
 50 51  1  0
 51 52  2  0
 52 53  1  0
 53 54  2  0
 52 55  1  0
 29 25  1  0
 47 42  1  0
 54 49  1  0
 33 28  1  0
  2 56  1  0
  3 57  1  0
  4 58  1  0
  4 59  1  0
  7 60  1  0
  8 61  1  6
 11 62  1  0
 12 63  1  1
 15 64  1  0
 16 65  1  1
 19 66  1  0
 20 67  1  6
 23 68  1  0
 23 69  1  0
 24 70  1  0
 24 71  1  0
 26 72  1  0
 27 73  1  0
 30 74  1  0
 31 75  1  0
 32 76  1  0
 33 77  1  0
 34 78  1  0
 34 79  1  0
 35 80  1  0
 35 81  1  0
 36 82  1  0
 36 83  1  0
 39 84  1  0
 39 85  1  0
 40 86  1  0
 40 87  1  0
 41 88  1  0
 41 89  1  0
 43 90  1  0
 44 91  1  0
 45 92  1  0
 46 93  1  0
 47 94  1  0
 48 95  1  0
 48 96  1  0
 50 97  1  0
 51 98  1  0
 53 99  1  0
 54100  1  0
M  END
>  <Ligand ID>  (1) 
LIG0002631

>  <Ligand>  (1) 
CHEMBL369770

>  <SMILES>  (1) 
O=CNCC(=O)N[C@H](C(=O)N[C@H](C(=O)N[C@H](C(=O)N[C@H](C(=O)N)Cc1c[nH]c2c1cccc2)CCCN=C(N)N)Cc1ccccc1)Cc1ccc(cc1)Cl

>  <CID>  (1) 
44394730.0

>  <ChEMBL ID>  (1) 
nan

>  <InChiKey>  (1) 
UHBVZDUIWRPWFM-YDPTYEFTSA-N

>  <InChi>  (1) 
InChI=1S/C38H45ClN10O6/c39-26-14-12-24(13-15-26)18-31(46-33(51)21-43-22-50)36(54)49-32(17-23-7-2-1-3-8-23)37(55)47-29(11-6-16-44-38(41)42)35(53)48-30(34(40)52)19-25-20-45-28-10-5-4-9-27(25)28/h1-5,7-10,12-15,20,22,29-32,45H,6,11,16-19,21H2,(H2,40,52)(H,43,50)(H,46,51)(H,47,55)(H,48,53)(H,49,54)(H4,41,42,44)/t29-,30-,31-,32-/m0/s1

>  <IUPAC Name>  (1) 
(2S)-N-[(2S)-1-amino-3-(1H-indol-3-yl)-1-oxopropan-2-yl]-2-[[(2S)-2-[[(2S)-3-(4-chlorophenyl)-2-[(2-formamidoacetyl)amino]propanoyl]amino]-3-phenylpropanoyl]amino]-5-(diaminomethylideneamino)pentanamide

$$$$
