
     RDKit          3D

 22 22  0  0  0  0  0  0  0  0999 V2000
    5.0591   -0.3829   -0.2134 C   0  0  0  0  0  0  0  0  0  0  0  0
    3.9626   -0.2890   -0.7352 C   0  0  0  0  0  0  0  0  0  0  0  0
    2.6628   -0.1899   -1.3779 C   0  0  0  0  0  0  0  0  0  0  0  0
    1.6854   -0.2425   -0.3286 O   0  0  0  0  0  0  0  0  0  0  0  0
    0.3591   -0.1649   -0.7021 C   0  0  0  0  0  0  0  0  0  0  0  0
    0.1282   -0.0536   -1.9461 O   0  0  0  0  0  0  0  0  0  0  0  0
   -0.7516   -0.2054    0.2578 C   0  0  2  0  0  0  0  0  0  0  0  0
   -2.0543   -0.0939   -0.5336 C   0  0  0  0  0  0  0  0  0  0  0  0
   -3.0881   -0.4779    0.4087 N   0  0  0  0  0  0  0  0  0  0  0  0
   -2.9468   -0.0697    1.7605 C   0  0  0  0  0  0  0  0  0  0  0  0
   -1.8870    0.5536    2.1825 N   0  0  0  0  0  0  0  0  0  0  0  0
   -0.7783    0.8681    1.2793 C   0  0  0  0  0  0  0  0  0  0  0  0
    6.0187   -0.4817    0.2431 H   0  0  0  0  0  0  0  0  0  0  0  0
    2.5511    0.6770   -2.0266 H   0  0  0  0  0  0  0  0  0  0  0  0
    2.5551   -1.1044   -2.0312 H   0  0  0  0  0  0  0  0  0  0  0  0
   -0.7282   -1.1845    0.7849 H   0  0  0  0  0  0  0  0  0  0  0  0
   -2.2335    0.9977   -0.7569 H   0  0  0  0  0  0  0  0  0  0  0  0
   -2.0167   -0.6974   -1.4430 H   0  0  0  0  0  0  0  0  0  0  0  0
   -3.8784   -1.0335    0.0383 H   0  0  0  0  0  0  0  0  0  0  0  0
   -3.7683   -0.2957    2.4578 H   0  0  0  0  0  0  0  0  0  0  0  0
    0.1771    0.9273    1.8386 H   0  0  0  0  0  0  0  0  0  0  0  0
   -1.0278    1.8552    0.8432 H   0  0  0  0  0  0  0  0  0  0  0  0
  1  2  3  0
  2  3  1  0
  3  4  1  0
  4  5  1  0
  5  6  2  0
  5  7  1  0
  7  8  1  0
  8  9  1  0
  9 10  1  0
 10 11  2  0
 11 12  1  0
 12  7  1  0
  1 13  1  0
  3 14  1  0
  3 15  1  0
  7 16  1  1
  8 17  1  0
  8 18  1  0
  9 19  1  0
 10 20  1  0
 12 21  1  0
 12 22  1  0
M  END
>  <Ligand ID>  (1) 
LIG0005604

>  <Ligand>  (1) 
ZINC1535055

>  <SMILES>  (1) 
C#CCOC(=O)[C@@H]1CNC=NC1

>  <CID>  (1) 
124300908.0

>  <ChEMBL ID>  (1) 
nan

>  <InChiKey>  (1) 
KEBHGVXTLDRPHQ-UHFFFAOYSA-N

>  <InChi>  (1) 
InChI=1S/C8H10N2O2/c1-2-3-12-8(11)7-4-9-6-10-5-7/h1,6-7H,3-5H2,(H,9,10)

>  <IUPAC Name>  (1) 
prop-2-ynyl (5R)-1,4,5,6-tetrahydropyrimidine-5-carboxylate

$$$$
