
     RDKit          3D

 74 77  0  0  0  0  0  0  0  0999 V2000
   -5.8707   -3.4623   -0.0905 O   0  0  0  0  0  0  0  0  0  0  0  0
   -5.5446   -2.2120   -0.0982 C   0  0  0  0  0  0  0  0  0  0  0  0
   -4.1643   -1.8478    0.1416 C   0  0  0  0  0  0  0  0  0  0  0  0
   -3.2919   -2.9143    0.4042 C   0  0  0  0  0  0  0  0  0  0  0  0
   -1.9626   -2.7457    0.6710 C   0  0  0  0  0  0  0  0  0  0  0  0
   -1.4593   -1.4782    0.6824 C   0  0  0  0  0  0  0  0  0  0  0  0
   -2.3125   -0.4228    0.4239 C   0  0  0  0  0  0  0  0  0  0  0  0
   -3.6598   -0.5645    0.1512 C   0  0  0  0  0  0  0  0  0  0  0  0
   -4.4766    0.4885   -0.1000 O   0  0  0  0  0  0  0  0  0  0  0  0
   -4.0898    1.8269   -0.0687 C   0  0  0  0  0  0  0  0  0  0  0  0
   -5.0618    2.7138    0.6634 C   0  0  0  0  0  0  0  0  0  0  0  0
   -6.3631    2.8031   -0.0340 C   0  0  0  0  0  0  0  0  0  0  0  0
   -6.3069    3.0428   -1.5001 C   0  0  0  0  0  0  0  0  0  0  0  0
   -5.3052    2.1388   -2.1719 C   0  0  0  0  0  0  0  0  0  0  0  0
   -3.9860    2.3689   -1.4983 C   0  0  0  0  0  0  0  0  0  0  0  0
   -0.0417   -1.3011    0.9718 C   0  0  0  0  0  0  0  0  0  0  0  0
    0.5418   -2.2080    1.8313 C   0  0  0  0  0  0  0  0  0  0  0  0
    1.8808   -2.1064    2.1552 C   0  0  0  0  0  0  0  0  0  0  0  0
    2.6377   -1.0738    1.6019 C   0  0  0  0  0  0  0  0  0  0  0  0
    2.0816   -0.1521    0.7393 C   0  0  0  0  0  0  0  0  0  0  0  0
    0.7212   -0.2860    0.4335 C   0  0  0  0  0  0  0  0  0  0  0  0
    4.0726   -1.0405    2.0072 C   0  0  0  0  0  0  0  0  0  0  0  0
    4.9160   -1.8478    1.0716 C   0  0  0  0  0  0  0  0  0  0  0  0
    6.3104   -1.8795    1.3792 N   0  0  0  0  0  0  0  0  0  0  0  0
    7.0097   -0.6440    1.2135 C   0  0  0  0  0  0  0  0  0  0  0  0
    7.1425   -0.1876   -0.2163 C   0  0  1  0  0  0  0  0  0  0  0  0
    7.9544    1.0740   -0.1729 C   0  0  0  0  0  0  0  0  0  0  0  0
    7.4315    2.3081   -0.4203 C   0  0  0  0  0  0  0  0  0  0  0  0
    8.3011    3.3946   -0.3453 C   0  0  0  0  0  0  0  0  0  0  0  0
    9.6273    3.2269   -0.0355 C   0  0  0  0  0  0  0  0  0  0  0  0
   10.1665    1.9632    0.2185 C   0  0  0  0  0  0  0  0  0  0  0  0
    9.3003    0.8975    0.1421 C   0  0  0  0  0  0  0  0  0  0  0  0
    7.8475   -1.1815   -0.9252 O   0  0  0  0  0  0  0  0  0  0  0  0
   -6.6161   -1.3478   -0.3487 N   0  0  0  0  0  0  0  0  0  0  0  0
   -8.1798   -2.0252   -0.6106 S   0  0  0  0  0  0  0  0  0  0  0  0
   -9.2368   -1.0847   -0.1570 O   0  0  0  0  0  0  0  0  0  0  0  0
   -8.3257   -3.2758    0.2143 O   0  0  0  0  0  0  0  0  0  0  0  0
   -8.4562   -2.3638   -2.3344 C   0  0  0  0  0  0  0  0  0  0  0  0
   -3.6522   -3.9513    0.4054 H   0  0  0  0  0  0  0  0  0  0  0  0
   -1.3377   -3.5937    0.8654 H   0  0  0  0  0  0  0  0  0  0  0  0
   -1.8129    0.5577    0.4481 H   0  0  0  0  0  0  0  0  0  0  0  0
   -3.0613    1.9302    0.3985 H   0  0  0  0  0  0  0  0  0  0  0  0
   -4.5888    3.7001    0.8685 H   0  0  0  0  0  0  0  0  0  0  0  0
   -5.2632    2.2188    1.6617 H   0  0  0  0  0  0  0  0  0  0  0  0
   -6.9164    3.6672    0.4579 H   0  0  0  0  0  0  0  0  0  0  0  0
   -6.9531    1.8793    0.1577 H   0  0  0  0  0  0  0  0  0  0  0  0
   -7.3308    2.9006   -1.9008 H   0  0  0  0  0  0  0  0  0  0  0  0
   -5.9561    4.0826   -1.6760 H   0  0  0  0  0  0  0  0  0  0  0  0
   -5.5801    1.0829   -1.9905 H   0  0  0  0  0  0  0  0  0  0  0  0
   -5.2410    2.3607   -3.2663 H   0  0  0  0  0  0  0  0  0  0  0  0
   -3.1284    1.9416   -2.0347 H   0  0  0  0  0  0  0  0  0  0  0  0
   -3.8007    3.4672   -1.4177 H   0  0  0  0  0  0  0  0  0  0  0  0
    0.0013   -3.0310    2.2917 H   0  0  0  0  0  0  0  0  0  0  0  0
    2.3297   -2.8262    2.8334 H   0  0  0  0  0  0  0  0  0  0  0  0
    2.6892    0.6378    0.3239 H   0  0  0  0  0  0  0  0  0  0  0  0
    0.2418    0.4108   -0.2354 H   0  0  0  0  0  0  0  0  0  0  0  0
    4.3711    0.0227    2.0873 H   0  0  0  0  0  0  0  0  0  0  0  0
    4.1922   -1.4626    3.0217 H   0  0  0  0  0  0  0  0  0  0  0  0
    4.7026   -1.5374    0.0227 H   0  0  0  0  0  0  0  0  0  0  0  0
    4.5474   -2.8969    1.1325 H   0  0  0  0  0  0  0  0  0  0  0  0
    6.7499   -2.5829    0.7382 H   0  0  0  0  0  0  0  0  0  0  0  0
    8.0458   -0.8082    1.6020 H   0  0  0  0  0  0  0  0  0  0  0  0
    6.5233    0.1099    1.8413 H   0  0  0  0  0  0  0  0  0  0  0  0
    6.1970   -0.0111   -0.7286 H   0  0  0  0  0  0  0  0  0  0  0  0
    6.3923    2.4185   -0.6610 H   0  0  0  0  0  0  0  0  0  0  0  0
    7.9453    4.3982   -0.5307 H   0  0  0  0  0  0  0  0  0  0  0  0
   10.3397    4.0471    0.0343 H   0  0  0  0  0  0  0  0  0  0  0  0
   11.2044    1.8217    0.4629 H   0  0  0  0  0  0  0  0  0  0  0  0
    9.7094   -0.0937    0.3385 H   0  0  0  0  0  0  0  0  0  0  0  0
    7.2029   -1.8309   -1.3384 H   0  0  0  0  0  0  0  0  0  0  0  0
   -6.4808   -0.3417   -0.3724 H   0  0  0  0  0  0  0  0  0  0  0  0
   -8.0069   -3.3641   -2.5343 H   0  0  0  0  0  0  0  0  0  0  0  0
   -9.5232   -2.3485   -2.5656 H   0  0  0  0  0  0  0  0  0  0  0  0
   -7.9831   -1.5692   -2.9551 H   0  0  0  0  0  0  0  0  0  0  0  0
  1  2  2  0
  2  3  1  0
  3  4  2  0
  4  5  1  0
  5  6  2  0
  6  7  1  0
  7  8  2  0
  8  9  1  0
  9 10  1  0
 10 11  1  0
 11 12  1  0
 12 13  1  0
 13 14  1  0
 14 15  1  0
  6 16  1  0
 16 17  2  0
 17 18  1  0
 18 19  2  0
 19 20  1  0
 20 21  2  0
 19 22  1  0
 22 23  1  0
 23 24  1  0
 24 25  1  0
 25 26  1  0
 26 27  1  0
 27 28  2  0
 28 29  1  0
 29 30  2  0
 30 31  1  0
 31 32  2  0
 26 33  1  0
  2 34  1  0
 34 35  1  0
 35 36  2  0
 35 37  2  0
 35 38  1  0
  8  3  1  0
 15 10  1  0
 21 16  1  0
 32 27  1  0
  4 39  1  0
  5 40  1  0
  7 41  1  0
 10 42  1  0
 11 43  1  0
 11 44  1  0
 12 45  1  0
 12 46  1  0
 13 47  1  0
 13 48  1  0
 14 49  1  0
 14 50  1  0
 15 51  1  0
 15 52  1  0
 17 53  1  0
 18 54  1  0
 20 55  1  0
 21 56  1  0
 22 57  1  0
 22 58  1  0
 23 59  1  0
 23 60  1  0
 24 61  1  0
 25 62  1  0
 25 63  1  0
 26 64  1  6
 28 65  1  0
 29 66  1  0
 30 67  1  0
 31 68  1  0
 32 69  1  0
 33 70  1  0
 34 71  1  0
 38 72  1  0
 38 73  1  0
 38 74  1  0
M  END
>  <Ligand ID>  (1) 
LIG0004927

>  <Ligand>  (1) 
CHEMBL469395

>  <SMILES>  (1) 
O=C(c1ccc(cc1OC1CCCCC1)c1ccc(cc1)CCNC[C@@H](c1ccccc1)O)NS(=O)(=O)C

>  <CID>  (1) 
11156916.0

>  <ChEMBL ID>  (1) 
nan

>  <InChiKey>  (1) 
WWFRXUDMACTFBI-NDEPHWFRSA-N

>  <InChi>  (1) 
InChI=1S/C30H36N2O5S/c1-38(35,36)32-30(34)27-17-16-25(20-29(27)37-26-10-6-3-7-11-26)23-14-12-22(13-15-23)18-19-31-21-28(33)24-8-4-2-5-9-24/h2,4-5,8-9,12-17,20,26,28,31,33H,3,6-7,10-11,18-19,21H2,1H3,(H,32,34)/t28-/m0/s1

>  <IUPAC Name>  (1) 
2-cyclohexyloxy-4-[4-[2-[[(2R)-2-hydroxy-2-phenylethyl]amino]ethyl]phenyl]-N-methylsulfonylbenzamide

$$$$
