
     RDKit          3D

 61 63  0  0  0  0  0  0  0  0999 V2000
    0.6148    0.1241    1.4814 C   0  0  0  0  0  0  0  0  0  0  0  0
   -0.2199   -0.2914    0.3147 C   0  0  0  0  0  0  0  0  0  0  0  0
    0.3374   -0.9967   -0.7608 C   0  0  0  0  0  0  0  0  0  0  0  0
    1.6786   -1.3226   -0.7765 O   0  0  0  0  0  0  0  0  0  0  0  0
    2.3804   -1.9918   -1.7692 C   0  0  0  0  0  0  0  0  0  0  0  0
    2.5281   -1.3655   -3.0867 C   0  0  0  0  0  0  0  0  0  0  0  0
    3.3852   -0.1338   -3.0984 C   0  0  0  0  0  0  0  0  0  0  0  0
    3.0086    0.9290   -2.1484 C   0  0  0  0  0  0  0  0  0  0  0  0
    3.1825    0.6816   -0.7930 O   0  0  0  0  0  0  0  0  0  0  0  0
    4.3714    0.5093   -0.1413 C   0  0  0  0  0  0  0  0  0  0  0  0
    5.6207    0.5941   -0.7225 C   0  0  0  0  0  0  0  0  0  0  0  0
    6.7983    0.3995    0.0076 C   0  0  0  0  0  0  0  0  0  0  0  0
    6.7682    0.1143    1.3467 C   0  0  0  0  0  0  0  0  0  0  0  0
    5.5307    0.0270    1.9443 C   0  0  0  0  0  0  0  0  0  0  0  0
    4.3528    0.2213    1.2128 C   0  0  0  0  0  0  0  0  0  0  0  0
    5.4758   -0.3381    3.6652 Cl  0  0  0  0  0  0  0  0  0  0  0  0
    7.9770   -0.0922    2.1276 C   0  0  0  0  0  0  0  0  0  0  0  0
    7.8756   -0.3514    3.3546 O   0  0  0  0  0  0  0  0  0  0  0  0
    9.2247   -0.0059    1.5333 O   0  0  0  0  0  0  0  0  0  0  0  0
   -0.5507   -1.3259   -1.7638 C   0  0  0  0  0  0  0  0  0  0  0  0
   -1.9022   -0.9829   -1.7164 C   0  0  0  0  0  0  0  0  0  0  0  0
   -2.4149   -0.2902   -0.6470 C   0  0  0  0  0  0  0  0  0  0  0  0
   -1.5497    0.0465    0.3629 C   0  0  0  0  0  0  0  0  0  0  0  0
   -2.0589    0.7467    1.4497 O   0  0  0  0  0  0  0  0  0  0  0  0
   -3.8303    0.0374   -0.6597 C   0  0  0  0  0  0  0  0  0  0  0  0
   -4.5913   -0.2930   -1.6052 O   0  0  0  0  0  0  0  0  0  0  0  0
   -4.4476    0.7891    0.4634 C   0  0  0  0  0  0  0  0  0  0  0  0
   -5.9370    0.9812    0.2015 C   0  0  0  0  0  0  0  0  0  0  0  0
   -6.6377   -0.3540    0.0722 C   0  0  0  0  0  0  0  0  0  0  0  0
   -7.7038   -0.3655    1.1488 C   0  0  0  0  0  0  0  0  0  0  0  0
   -7.9916    1.1108    1.3142 C   0  0  0  0  0  0  0  0  0  0  0  0
   -6.5657    1.6706    1.3914 C   0  0  0  0  0  0  0  0  0  0  0  0
    1.2410   -0.7333    1.8381 H   0  0  0  0  0  0  0  0  0  0  0  0
    1.2962    0.9414    1.1842 H   0  0  0  0  0  0  0  0  0  0  0  0
   -0.0063    0.4811    2.3123 H   0  0  0  0  0  0  0  0  0  0  0  0
    3.4107   -2.2272   -1.3904 H   0  0  0  0  0  0  0  0  0  0  0  0
    1.8527   -2.9947   -1.8917 H   0  0  0  0  0  0  0  0  0  0  0  0
    1.5731   -1.1610   -3.6382 H   0  0  0  0  0  0  0  0  0  0  0  0
    3.0880   -2.1400   -3.7327 H   0  0  0  0  0  0  0  0  0  0  0  0
    3.4222    0.2690   -4.1674 H   0  0  0  0  0  0  0  0  0  0  0  0
    4.4327   -0.4828   -2.8805 H   0  0  0  0  0  0  0  0  0  0  0  0
    3.5665    1.8805   -2.3884 H   0  0  0  0  0  0  0  0  0  0  0  0
    1.9300    1.2241   -2.3202 H   0  0  0  0  0  0  0  0  0  0  0  0
    5.7795    0.8419   -1.7599 H   0  0  0  0  0  0  0  0  0  0  0  0
    7.7760    0.4712   -0.4771 H   0  0  0  0  0  0  0  0  0  0  0  0
    3.4499    0.1284    1.7950 H   0  0  0  0  0  0  0  0  0  0  0  0
    9.9936   -0.5991    1.8809 H   0  0  0  0  0  0  0  0  0  0  0  0
   -0.2633   -1.8901   -2.6358 H   0  0  0  0  0  0  0  0  0  0  0  0
   -2.5775   -1.2646   -2.5397 H   0  0  0  0  0  0  0  0  0  0  0  0
   -1.6866    1.5992    1.8042 H   0  0  0  0  0  0  0  0  0  0  0  0
   -3.9473    1.7727    0.5576 H   0  0  0  0  0  0  0  0  0  0  0  0
   -4.3470    0.2653    1.4218 H   0  0  0  0  0  0  0  0  0  0  0  0
   -6.1341    1.6345   -0.6693 H   0  0  0  0  0  0  0  0  0  0  0  0
   -5.8995   -1.1683    0.2322 H   0  0  0  0  0  0  0  0  0  0  0  0
   -7.1521   -0.4590   -0.8992 H   0  0  0  0  0  0  0  0  0  0  0  0
   -8.6009   -0.9341    0.8401 H   0  0  0  0  0  0  0  0  0  0  0  0
   -7.2406   -0.7449    2.0694 H   0  0  0  0  0  0  0  0  0  0  0  0
   -8.5961    1.3608    2.1854 H   0  0  0  0  0  0  0  0  0  0  0  0
   -8.4127    1.4713    0.3556 H   0  0  0  0  0  0  0  0  0  0  0  0
   -6.5356    2.7575    1.3504 H   0  0  0  0  0  0  0  0  0  0  0  0
   -6.1217    1.2188    2.2966 H   0  0  0  0  0  0  0  0  0  0  0  0
  1  2  1  0
  2  3  2  0
  3  4  1  0
  4  5  1  0
  5  6  1  0
  6  7  1  0
  7  8  1  0
  8  9  1  0
  9 10  1  0
 10 11  2  0
 11 12  1  0
 12 13  2  0
 13 14  1  0
 14 15  2  0
 14 16  1  0
 13 17  1  0
 17 18  2  0
 17 19  1  0
  3 20  1  0
 20 21  2  0
 21 22  1  0
 22 23  2  0
 23 24  1  0
 22 25  1  0
 25 26  2  0
 25 27  1  0
 27 28  1  0
 28 29  1  0
 29 30  1  0
 30 31  1  0
 31 32  1  0
 23  2  1  0
 32 28  1  0
 15 10  1  0
  1 33  1  0
  1 34  1  0
  1 35  1  0
  5 36  1  0
  5 37  1  0
  6 38  1  0
  6 39  1  0
  7 40  1  0
  7 41  1  0
  8 42  1  0
  8 43  1  0
 11 44  1  0
 12 45  1  0
 15 46  1  0
 19 47  1  0
 20 48  1  0
 21 49  1  0
 24 50  1  0
 27 51  1  0
 27 52  1  0
 28 53  1  0
 29 54  1  0
 29 55  1  0
 30 56  1  0
 30 57  1  0
 31 58  1  0
 31 59  1  0
 32 60  1  0
 32 61  1  0
M  END
>  <Ligand ID>  (1) 
LIG0003650

>  <Ligand>  (1) 
CHEMBL3287684

>  <SMILES>  (1) 
Cc1c(OCCCCOc2ccc(c(c2)Cl)C(=O)O)ccc(c1O)C(=O)CC1CCCC1

>  <CID>  (1) 
90643864.0

>  <ChEMBL ID>  (1) 
nan

>  <InChiKey>  (1) 
ZNRWBONOBRNVRG-UHFFFAOYSA-N

>  <InChi>  (1) 
InChI=1S/C25H29ClO6/c1-16-23(11-10-20(24(16)28)22(27)14-17-6-2-3-7-17)32-13-5-4-12-31-18-8-9-19(25(29)30)21(26)15-18/h8-11,15,17,28H,2-7,12-14H2,1H3,(H,29,30)

>  <IUPAC Name>  (1) 
2-chloro-4-[4-[4-(2-cyclopentylacetyl)-3-hydroxy-2-methylphenoxy]butoxy]benzoic acid

$$$$
