
     RDKit          3D

 43 46  0  0  0  0  0  0  0  0999 V2000
   -2.7750    1.7381    1.6927 C   0  0  0  0  0  0  0  0  0  0  0  0
   -3.3237    0.9928    0.5126 C   0  0  2  0  0  0  0  0  0  0  0  0
   -4.6474    0.3645    0.9112 C   0  0  0  0  0  0  0  0  0  0  0  0
   -5.2910   -0.2372   -0.2394 N   0  0  0  0  0  0  0  0  0  0  0  0
   -4.4392   -1.1001   -0.9955 C   0  0  0  0  0  0  0  0  0  0  0  0
   -3.1188   -1.3283   -0.3165 C   0  0  2  0  0  0  0  0  0  0  0  0
   -2.4667   -0.0881    0.0559 N   0  0  0  0  0  0  0  0  0  0  0  0
   -1.0547   -0.1912   -0.1110 C   0  0  0  0  0  0  0  0  0  0  0  0
   -0.0970    0.5943    0.3673 N   0  0  0  0  0  0  0  0  0  0  0  0
    1.1948    0.3206    0.0899 C   0  0  0  0  0  0  0  0  0  0  0  0
    2.1995    1.2453    0.6289 C   0  0  0  0  0  0  0  0  0  0  0  0
    3.0232    0.6875    1.5218 O   0  0  0  0  0  0  0  0  0  0  0  0
    3.8663   -0.3194    1.2343 C   0  0  0  0  0  0  0  0  0  0  0  0
    4.8381    0.1433    0.1627 C   0  0  0  0  0  0  0  0  0  0  0  0
    5.6590    1.3589    0.6434 C   0  0  0  0  0  0  0  0  0  0  0  0
    6.2934    0.0467    0.3483 C   0  0  0  0  0  0  0  0  0  0  0  0
    1.4485   -0.7759   -0.6872 C   0  0  0  0  0  0  0  0  0  0  0  0
    0.4603   -1.6115   -1.1977 C   0  0  0  0  0  0  0  0  0  0  0  0
   -0.8339   -1.3065   -0.8978 C   0  0  0  0  0  0  0  0  0  0  0  0
   -2.1163   -1.9578   -1.2599 C   0  0  0  0  0  0  0  0  0  0  0  0
   -1.6776    1.8924    1.6566 H   0  0  0  0  0  0  0  0  0  0  0  0
   -3.0205    1.2486    2.6511 H   0  0  0  0  0  0  0  0  0  0  0  0
   -3.2162    2.7622    1.6790 H   0  0  0  0  0  0  0  0  0  0  0  0
   -3.5014    1.6708   -0.3558 H   0  0  0  0  0  0  0  0  0  0  0  0
   -5.2903    1.1755    1.2784 H   0  0  0  0  0  0  0  0  0  0  0  0
   -4.4606   -0.3542    1.7175 H   0  0  0  0  0  0  0  0  0  0  0  0
   -5.7823    0.4744   -0.7891 H   0  0  0  0  0  0  0  0  0  0  0  0
   -4.2466   -0.6897   -2.0233 H   0  0  0  0  0  0  0  0  0  0  0  0
   -4.9310   -2.1066   -1.0754 H   0  0  0  0  0  0  0  0  0  0  0  0
   -3.2595   -1.9516    0.5992 H   0  0  0  0  0  0  0  0  0  0  0  0
    2.7123    1.6890   -0.2674 H   0  0  0  0  0  0  0  0  0  0  0  0
    1.7019    2.1480    1.1030 H   0  0  0  0  0  0  0  0  0  0  0  0
    3.4681   -1.3216    1.0791 H   0  0  0  0  0  0  0  0  0  0  0  0
    4.5307   -0.4384    2.1712 H   0  0  0  0  0  0  0  0  0  0  0  0
    4.4590    0.1876   -0.8662 H   0  0  0  0  0  0  0  0  0  0  0  0
    5.6007    1.6699    1.6859 H   0  0  0  0  0  0  0  0  0  0  0  0
    5.6915    2.1907   -0.0701 H   0  0  0  0  0  0  0  0  0  0  0  0
    6.9196   -0.0016   -0.5652 H   0  0  0  0  0  0  0  0  0  0  0  0
    6.7435   -0.4893    1.2161 H   0  0  0  0  0  0  0  0  0  0  0  0
    2.4543   -1.0342   -0.9565 H   0  0  0  0  0  0  0  0  0  0  0  0
    0.6806   -2.4596   -1.7996 H   0  0  0  0  0  0  0  0  0  0  0  0
   -2.0328   -3.0361   -1.0080 H   0  0  0  0  0  0  0  0  0  0  0  0
   -2.3628   -1.8025   -2.3314 H   0  0  0  0  0  0  0  0  0  0  0  0
  1  2  1  0
  2  3  1  0
  3  4  1  0
  4  5  1  0
  5  6  1  0
  6  7  1  0
  7  8  1  0
  8  9  2  0
  9 10  1  0
 10 11  1  0
 11 12  1  0
 12 13  1  0
 13 14  1  0
 14 15  1  0
 15 16  1  0
 10 17  2  0
 17 18  1  0
 18 19  2  0
 19 20  1  0
  7  2  1  0
 19  8  1  0
 20  6  1  0
 16 14  1  0
  1 21  1  0
  1 22  1  0
  1 23  1  0
  2 24  1  6
  3 25  1  0
  3 26  1  0
  4 27  1  0
  5 28  1  0
  5 29  1  0
  6 30  1  1
 11 31  1  0
 11 32  1  0
 13 33  1  0
 13 34  1  0
 14 35  1  0
 15 36  1  0
 15 37  1  0
 16 38  1  0
 16 39  1  0
 17 40  1  0
 18 41  1  0
 20 42  1  0
 20 43  1  0
M  END
>  <Ligand ID>  (1) 
LIG0005328

>  <Ligand>  (1) 
CHEMBL203013

>  <SMILES>  (1) 
C[C@@H]1CNC[C@@H]2N1c1nc(COCC3CC3)ccc1C2

>  <CID>  (1) 
44409290.0

>  <ChEMBL ID>  (1) 
nan

>  <InChiKey>  (1) 
LJRLAJVWAFFRLV-IAQYHMDHSA-N

>  <InChi>  (1) 
InChI=1S/C16H23N3O/c1-11-7-17-8-15-6-13-4-5-14(18-16(13)19(11)15)10-20-9-12-2-3-12/h4-5,11-12,15,17H,2-3,6-10H2,1H3/t11-,15-/m1/s1

>  <IUPAC Name>  (1) 
(9R,13R)-4-(cyclopropylmethoxymethyl)-13-methyl-1,3,11-triazatricyclo[7.4.0.02,7]trideca-2(7),3,5-triene

$$$$
