
     RDKit          3D

 19 19  0  0  0  0  0  0  0  0999 V2000
    2.4019    0.0534    0.2768 C   0  0  0  0  0  0  0  0  0  0  0  0
    1.4670   -0.2845   -0.8949 C   0  0  0  0  0  0  0  0  0  0  0  0
    0.0695   -0.0309   -0.4513 C   0  0  0  0  0  0  0  0  0  0  0  0
   -0.4961    1.1632   -0.8915 C   0  0  0  0  0  0  0  0  0  0  0  0
   -1.7996    1.4278   -0.4711 C   0  0  0  0  0  0  0  0  0  0  0  0
   -2.4836    0.5275    0.3470 C   0  0  0  0  0  0  0  0  0  0  0  0
   -1.8871   -0.6521    0.7648 C   0  0  0  0  0  0  0  0  0  0  0  0
   -0.5901   -0.9231    0.3519 C   0  0  0  0  0  0  0  0  0  0  0  0
    0.0749   -2.0952    0.7341 O   0  0  0  0  0  0  0  0  0  0  0  0
    2.6382    1.1393    0.1490 H   0  0  0  0  0  0  0  0  0  0  0  0
    1.8537   -0.0370    1.2315 H   0  0  0  0  0  0  0  0  0  0  0  0
    3.2897   -0.5867    0.2925 H   0  0  0  0  0  0  0  0  0  0  0  0
    1.6307   -1.3610   -1.1374 H   0  0  0  0  0  0  0  0  0  0  0  0
    1.7854    0.3212   -1.7562 H   0  0  0  0  0  0  0  0  0  0  0  0
    0.0449    1.8520   -1.5252 H   0  0  0  0  0  0  0  0  0  0  0  0
   -2.2895    2.3626   -0.7948 H   0  0  0  0  0  0  0  0  0  0  0  0
   -3.5053    0.7653    0.6600 H   0  0  0  0  0  0  0  0  0  0  0  0
   -2.4309   -1.3408    1.4000 H   0  0  0  0  0  0  0  0  0  0  0  0
    0.2263   -2.3011    1.7148 H   0  0  0  0  0  0  0  0  0  0  0  0
  1  2  1  0
  2  3  1  0
  3  4  2  0
  4  5  1  0
  5  6  2  0
  6  7  1  0
  7  8  2  0
  8  9  1  0
  8  3  1  0
  1 10  1  0
  1 11  1  0
  1 12  1  0
  2 13  1  0
  2 14  1  0
  4 15  1  0
  5 16  1  0
  6 17  1  0
  7 18  1  0
  9 19  1  0
M  END
>  <Ligand ID>  (1) 
LIG0000185

>  <Ligand>  (1) 
2-Ethylphenol

>  <SMILES>  (1) 
CCc1ccccc1O

>  <CID>  (1) 
6997.0

>  <ChEMBL ID>  (1) 
nan

>  <InChiKey>  (1) 
IXQGCWUGDFDQMF-UHFFFAOYSA-N

>  <InChi>  (1) 
InChI=1S/C8H10O/c1-2-7-5-3-4-6-8(7)9/h3-6,9H,2H2,1H3

>  <IUPAC Name>  (1) 
2-ethylphenol

$$$$
