
     RDKit          3D

 38 40  0  0  0  0  0  0  0  0999 V2000
   -0.9958   -0.7359   -2.7845 C   0  0  0  0  0  0  0  0  0  0  0  0
   -1.3532   -0.8784   -1.3187 C   0  0  2  0  0  0  0  0  0  0  0  0
   -2.3469    0.1780   -0.9311 C   0  0  0  0  0  0  0  0  0  0  0  0
   -2.8667    1.1001   -1.6659 N   0  0  0  0  0  0  0  0  0  0  0  0
   -3.7902    1.9264   -0.9109 C   0  0  0  0  0  0  0  0  0  0  0  0
   -3.7226    1.4378    0.5066 C   0  0  0  0  0  0  0  0  0  0  0  0
   -2.8581    0.2783    0.3931 N   0  0  0  0  0  0  0  0  0  0  0  0
   -0.2098   -0.6648   -0.5825 O   0  0  0  0  0  0  0  0  0  0  0  0
    0.4030   -1.4601    0.3459 C   0  0  0  0  0  0  0  0  0  0  0  0
   -0.0408   -2.7034    0.7411 C   0  0  0  0  0  0  0  0  0  0  0  0
    0.5982   -3.4793    1.6780 C   0  0  0  0  0  0  0  0  0  0  0  0
    1.7572   -2.9686    2.2515 C   0  0  0  0  0  0  0  0  0  0  0  0
    2.2415   -1.7282    1.8885 C   0  0  0  0  0  0  0  0  0  0  0  0
    1.5680   -0.9673    0.9345 C   0  0  0  0  0  0  0  0  0  0  0  0
    2.0780    0.3301    0.5573 C   0  0  0  0  0  0  0  0  0  0  0  0
    1.2607    1.4418    0.4326 C   0  0  0  0  0  0  0  0  0  0  0  0
    1.8187    2.6525    0.0676 C   0  0  0  0  0  0  0  0  0  0  0  0
    3.1682    2.7404   -0.1661 C   0  0  0  0  0  0  0  0  0  0  0  0
    3.9975    1.6589   -0.0502 C   0  0  0  0  0  0  0  0  0  0  0  0
    3.4355    0.4480    0.3155 C   0  0  0  0  0  0  0  0  0  0  0  0
   -1.0258    0.3265   -3.1136 H   0  0  0  0  0  0  0  0  0  0  0  0
    0.0810   -1.0380   -2.9323 H   0  0  0  0  0  0  0  0  0  0  0  0
   -1.5865   -1.4010   -3.4294 H   0  0  0  0  0  0  0  0  0  0  0  0
   -1.8415   -1.8593   -1.1110 H   0  0  0  0  0  0  0  0  0  0  0  0
   -3.3519    2.9649   -0.9664 H   0  0  0  0  0  0  0  0  0  0  0  0
   -4.8163    1.8868   -1.3021 H   0  0  0  0  0  0  0  0  0  0  0  0
   -4.7005    1.1901    0.9487 H   0  0  0  0  0  0  0  0  0  0  0  0
   -3.1445    2.1646    1.1421 H   0  0  0  0  0  0  0  0  0  0  0  0
   -2.6560   -0.3778    1.1933 H   0  0  0  0  0  0  0  0  0  0  0  0
   -0.9473   -3.0767    0.2773 H   0  0  0  0  0  0  0  0  0  0  0  0
    0.2228   -4.4499    1.9648 H   0  0  0  0  0  0  0  0  0  0  0  0
    2.3161   -3.5385    3.0072 H   0  0  0  0  0  0  0  0  0  0  0  0
    3.1433   -1.2971    2.3150 H   0  0  0  0  0  0  0  0  0  0  0  0
    0.2017    1.3626    0.6184 H   0  0  0  0  0  0  0  0  0  0  0  0
    1.2216    3.5500   -0.0430 H   0  0  0  0  0  0  0  0  0  0  0  0
    3.5905    3.6921   -0.4505 H   0  0  0  0  0  0  0  0  0  0  0  0
    5.0736    1.7262   -0.2360 H   0  0  0  0  0  0  0  0  0  0  0  0
    4.0774   -0.4320    0.4150 H   0  0  0  0  0  0  0  0  0  0  0  0
  1  2  1  0
  2  3  1  0
  3  4  2  0
  4  5  1  0
  5  6  1  0
  6  7  1  0
  2  8  1  0
  8  9  1  0
  9 10  2  0
 10 11  1  0
 11 12  2  0
 12 13  1  0
 13 14  2  0
 14 15  1  0
 15 16  2  0
 16 17  1  0
 17 18  2  0
 18 19  1  0
 19 20  2  0
  7  3  1  0
 14  9  1  0
 20 15  1  0
  1 21  1  0
  1 22  1  0
  1 23  1  0
  2 24  1  6
  5 25  1  0
  5 26  1  0
  6 27  1  0
  6 28  1  0
  7 29  1  0
 10 30  1  0
 11 31  1  0
 12 32  1  0
 13 33  1  0
 16 34  1  0
 17 35  1  0
 18 36  1  0
 19 37  1  0
 20 38  1  0
M  END
>  <Ligand ID>  (1) 
LIG0002199

>  <Ligand>  (1) 
CHEMBL242265

>  <SMILES>  (1) 
C[C@H](C1=NCCN1)Oc1ccccc1c1ccccc1

>  <CID>  (1) 
11043720.0

>  <ChEMBL ID>  (1) 
nan

>  <InChiKey>  (1) 
OGOLMGZJNRNULQ-CYBMUJFWSA-N

>  <InChi>  (1) 
InChI=1S/C17H18N2O/c1-13(17-18-11-12-19-17)20-16-10-6-5-9-15(16)14-7-3-2-4-8-14/h2-10,13H,11-12H2,1H3,(H,18,19)/t13-/m1/s1

>  <IUPAC Name>  (1) 
2-[(1R)-1-(2-phenylphenoxy)ethyl]-4,5-dihydro-1H-imidazole

$$$$
