
     RDKit          3D

 27 28  0  0  0  0  0  0  0  0999 V2000
   -2.1462    1.5158    0.5037 C   0  0  0  0  0  0  0  0  0  0  0  0
   -1.3869    0.5296   -0.3767 C   0  0  0  0  0  0  0  0  0  0  0  0
   -1.7961   -0.8683    0.0616 C   0  0  0  0  0  0  0  0  0  0  0  0
   -1.2997   -1.9095   -0.7626 N   0  0  0  0  0  0  0  0  0  0  0  0
   -0.0067   -2.4036   -0.5037 C   0  0  0  0  0  0  0  0  0  0  0  0
    0.7219   -1.7284    0.6308 C   0  0  0  0  0  0  0  0  0  0  0  0
    1.0154   -0.3130    0.2509 C   0  0  0  0  0  0  0  0  0  0  0  0
    0.0895    0.6323   -0.1776 C   0  0  0  0  0  0  0  0  0  0  0  0
    0.4940    1.9171   -0.5008 C   0  0  0  0  0  0  0  0  0  0  0  0
    1.8474    2.2152   -0.3796 C   0  0  0  0  0  0  0  0  0  0  0  0
    2.4190    3.8261   -0.7748 Cl  0  0  0  0  0  0  0  0  0  0  0  0
    2.7755    1.2893    0.0435 C   0  0  0  0  0  0  0  0  0  0  0  0
    2.3495    0.0249    0.3572 C   0  0  0  0  0  0  0  0  0  0  0  0
    4.4709    1.6791    0.1904 Cl  0  0  0  0  0  0  0  0  0  0  0  0
   -1.4376    2.1092    1.1092 H   0  0  0  0  0  0  0  0  0  0  0  0
   -2.8258    0.9896    1.2208 H   0  0  0  0  0  0  0  0  0  0  0  0
   -2.7402    2.2118   -0.1416 H   0  0  0  0  0  0  0  0  0  0  0  0
   -1.6041    0.6930   -1.4592 H   0  0  0  0  0  0  0  0  0  0  0  0
   -2.9137   -0.9458    0.0636 H   0  0  0  0  0  0  0  0  0  0  0  0
   -1.5175   -0.9331    1.1312 H   0  0  0  0  0  0  0  0  0  0  0  0
   -1.9891   -2.6740   -0.9111 H   0  0  0  0  0  0  0  0  0  0  0  0
    0.6209   -2.1978   -1.4174 H   0  0  0  0  0  0  0  0  0  0  0  0
    0.0684   -3.4958   -0.3456 H   0  0  0  0  0  0  0  0  0  0  0  0
    0.2510   -1.8304    1.6099 H   0  0  0  0  0  0  0  0  0  0  0  0
    1.6991   -2.2577    0.7168 H   0  0  0  0  0  0  0  0  0  0  0  0
   -0.1722    2.6895   -0.8369 H   0  0  0  0  0  0  0  0  0  0  0  0
    3.0132   -0.7650    0.6981 H   0  0  0  0  0  0  0  0  0  0  0  0
  1  2  1  0
  2  3  1  0
  3  4  1  0
  4  5  1  0
  5  6  1  0
  6  7  1  0
  7  8  2  0
  8  9  1  0
  9 10  2  0
 10 11  1  0
 10 12  1  0
 12 13  2  0
 12 14  1  0
  8  2  1  0
 13  7  1  0
  1 15  1  0
  1 16  1  0
  1 17  1  0
  2 18  1  0
  3 19  1  0
  3 20  1  0
  4 21  1  0
  5 22  1  0
  5 23  1  0
  6 24  1  0
  6 25  1  0
  9 26  1  0
 13 27  1  0
M  END
>  <Ligand ID>  (1) 
LIG0004028

>  <Ligand>  (1) 
CHEMBL178366

>  <SMILES>  (1) 
CC1CNCCc2c1cc(Cl)c(c2)Cl

>  <CID>  (1) 
9991444.0

>  <ChEMBL ID>  (1) 
nan

>  <InChiKey>  (1) 
KTCVEIAEKPSBCJ-UHFFFAOYSA-N

>  <InChi>  (1) 
InChI=1S/C11H13Cl2N/c1-7-6-14-3-2-8-4-10(12)11(13)5-9(7)8/h4-5,7,14H,2-3,6H2,1H3

>  <IUPAC Name>  (1) 
7,8-dichloro-5-methyl-2,3,4,5-tetrahydro-1H-3-benzazepine

$$$$
