
     RDKit          3D

138139  0  0  0  0  0  0  0  0999 V2000
    5.3963   -4.9155   -2.1585 O   0  0  0  0  0  0  0  0  0  0  0  0
    5.6512   -4.2992   -3.3695 C   0  0  0  0  0  0  0  0  0  0  0  0
    4.8066   -3.1241   -3.6692 C   0  0  0  0  0  0  0  0  0  0  0  0
    4.9724   -1.9627   -2.7442 C   0  0  0  0  0  0  0  0  0  0  0  0
    4.7265   -2.2555   -1.3845 N   0  0  0  0  0  0  0  0  0  0  0  0
    3.4524   -2.2757   -0.7317 C   0  0  0  0  0  0  0  0  0  0  0  0
    3.4040   -2.4957    0.5351 O   0  0  0  0  0  0  0  0  0  0  0  0
    2.1570   -2.0798   -1.3807 C   0  0  2  0  0  0  0  0  0  0  0  0
    1.8673   -0.5871   -1.6532 C   0  0  0  0  0  0  0  0  0  0  0  0
    0.8660   -0.4906   -2.7369 C   0  0  0  0  0  0  0  0  0  0  0  0
    0.0129    1.0229   -3.0652 S   0  0  0  0  0  0  0  0  0  0  0  0
   -1.2156    1.4356   -1.8404 C   0  0  0  0  0  0  0  0  0  0  0  0
   -0.6644    2.1451   -0.6544 C   0  0  0  0  0  0  0  0  0  0  0  0
   -1.5839    2.0059    0.5015 C   0  0  0  0  0  0  0  0  0  0  0  0
   -1.9204    0.8571    0.8224 O   0  0  0  0  0  0  0  0  0  0  0  0
   -2.1538    3.0472    1.2947 N   0  0  0  0  0  0  0  0  0  0  0  0
   -2.9462    2.6123    2.4155 C   0  0  1  0  0  0  0  0  0  0  0  0
   -3.1681    3.6178    3.4464 C   0  0  0  0  0  0  0  0  0  0  0  0
   -3.8690    4.8422    3.0795 C   0  0  0  0  0  0  0  0  0  0  0  0
   -3.2235    6.0258    2.6802 C   0  0  0  0  0  0  0  0  0  0  0  0
   -4.0314    7.1217    2.3585 C   0  0  0  0  0  0  0  0  0  0  0  0
   -5.4107    7.0498    2.4280 C   0  0  0  0  0  0  0  0  0  0  0  0
   -6.0413    5.9008    2.8169 C   0  0  0  0  0  0  0  0  0  0  0  0
   -5.2744    4.8033    3.1402 C   0  0  0  0  0  0  0  0  0  0  0  0
   -6.2029    8.1515    2.1013 O   0  0  0  0  0  0  0  0  0  0  0  0
   -4.1310    1.7877    2.0977 C   0  0  0  0  0  0  0  0  0  0  0  0
   -4.7658    1.3214    3.0733 O   0  0  0  0  0  0  0  0  0  0  0  0
   -4.6548    1.4531    0.8325 N   0  0  0  0  0  0  0  0  0  0  0  0
   -5.7649    0.4378    0.8143 C   0  0  2  0  0  0  0  0  0  0  0  0
   -5.0729   -0.7861    0.2476 C   0  0  0  0  0  0  0  0  0  0  0  0
   -4.1328   -0.6200   -0.5161 O   0  0  0  0  0  0  0  0  0  0  0  0
   -5.4422   -2.1212    0.5558 N   0  0  0  0  0  0  0  0  0  0  0  0
   -4.6250   -3.2643    0.0209 C   0  0  2  0  0  0  0  0  0  0  0  0
   -3.2464   -3.0527    0.4821 C   0  0  0  0  0  0  0  0  0  0  0  0
   -2.9662   -2.0136    1.0862 O   0  0  0  0  0  0  0  0  0  0  0  0
   -2.1382   -3.9654    0.3118 N   0  0  0  0  0  0  0  0  0  0  0  0
   -0.8341   -3.5009    0.7290 C   0  0  2  0  0  0  0  0  0  0  0  0
    0.0576   -3.2649   -0.4770 C   0  0  0  0  0  0  0  0  0  0  0  0
   -0.1596   -3.7381   -1.5890 O   0  0  0  0  0  0  0  0  0  0  0  0
    1.1811   -2.4565   -0.2978 N   0  0  0  0  0  0  0  0  0  0  0  0
   -0.1218   -4.3996    1.6873 C   0  0  0  0  0  0  0  0  0  0  0  0
   -0.8910   -4.5945    2.9449 C   0  0  0  0  0  0  0  0  0  0  0  0
   -2.0316   -4.0930    3.1173 O   0  0  0  0  0  0  0  0  0  0  0  0
   -0.3581   -5.3636    4.0099 N   0  0  0  0  0  0  0  0  0  0  0  0
   -4.7801   -3.3404   -1.4458 C   0  0  0  0  0  0  0  0  0  0  0  0
   -4.0229   -4.3950   -2.1700 C   0  0  0  0  0  0  0  0  0  0  0  0
   -4.3311   -4.4270   -3.6419 C   0  0  0  0  0  0  0  0  0  0  0  0
   -5.1977   -3.6654   -4.1603 O   0  0  0  0  0  0  0  0  0  0  0  0
   -3.6446   -5.3295   -4.5051 N   0  0  0  0  0  0  0  0  0  0  0  0
   -6.8319    0.8260   -0.1405 C   0  0  2  0  0  0  0  0  0  0  0  0
   -7.9285   -0.2144   -0.1253 C   0  0  0  0  0  0  0  0  0  0  0  0
   -9.0557    0.1367   -1.0795 C   0  0  0  0  0  0  0  0  0  0  0  0
   -6.3216    0.8732   -1.5820 C   0  0  0  0  0  0  0  0  0  0  0  0
    5.8567   -2.5950   -0.5291 C   0  0  0  0  0  0  0  0  0  0  0  0
    6.4571   -1.4479    0.1757 C   0  0  0  0  0  0  0  0  0  0  0  0
    7.4326   -1.7533    0.9553 O   0  0  0  0  0  0  0  0  0  0  0  0
    6.1058   -0.1023    0.0996 N   0  0  0  0  0  0  0  0  0  0  0  0
    6.8932    0.8617    0.9357 C   0  0  2  0  0  0  0  0  0  0  0  0
    5.9529    1.7143    1.6330 C   0  0  0  0  0  0  0  0  0  0  0  0
    6.2341    2.6396    2.4485 O   0  0  0  0  0  0  0  0  0  0  0  0
    4.5164    1.5663    1.4464 N   0  0  0  0  0  0  0  0  0  0  0  0
    3.5930    2.4284    2.1561 C   0  0  0  0  0  0  0  0  0  0  0  0
    3.8448    3.8304    1.7734 C   0  0  0  0  0  0  0  0  0  0  0  0
    3.1073    4.7087    2.3309 O   0  0  0  0  0  0  0  0  0  0  0  0
    4.8042    4.2926    0.8641 N   0  0  0  0  0  0  0  0  0  0  0  0
    7.8624    1.4873    0.0052 C   0  0  0  0  0  0  0  0  0  0  0  0
    8.8822    2.4425    0.4393 C   0  0  0  0  0  0  0  0  0  0  0  0
    8.4924    3.7282    1.0489 C   0  0  0  0  0  0  0  0  0  0  0  0
    9.7960    2.6953   -0.7853 C   0  0  0  0  0  0  0  0  0  0  0  0
    5.1120   -5.8358   -2.3048 H   0  0  0  0  0  0  0  0  0  0  0  0
    5.4970   -5.0521   -4.1919 H   0  0  0  0  0  0  0  0  0  0  0  0
    6.7342   -3.9798   -3.3706 H   0  0  0  0  0  0  0  0  0  0  0  0
    4.9632   -2.8021   -4.7449 H   0  0  0  0  0  0  0  0  0  0  0  0
    3.7223   -3.4790   -3.6621 H   0  0  0  0  0  0  0  0  0  0  0  0
    4.2887   -1.1218   -3.0812 H   0  0  0  0  0  0  0  0  0  0  0  0
    5.9915   -1.4889   -2.8941 H   0  0  0  0  0  0  0  0  0  0  0  0
    2.0144   -2.6315   -2.2784 H   0  0  0  0  0  0  0  0  0  0  0  0
    1.4459   -0.1707   -0.7096 H   0  0  0  0  0  0  0  0  0  0  0  0
    2.7589   -0.0193   -1.8746 H   0  0  0  0  0  0  0  0  0  0  0  0
    1.3687   -0.8936   -3.6970 H   0  0  0  0  0  0  0  0  0  0  0  0
    0.0651   -1.2825   -2.5841 H   0  0  0  0  0  0  0  0  0  0  0  0
   -1.9719    2.1025   -2.3630 H   0  0  0  0  0  0  0  0  0  0  0  0
   -1.8401    0.5445   -1.5440 H   0  0  0  0  0  0  0  0  0  0  0  0
    0.3461    1.8827   -0.3403 H   0  0  0  0  0  0  0  0  0  0  0  0
   -0.6475    3.2514   -0.9016 H   0  0  0  0  0  0  0  0  0  0  0  0
   -1.9488    3.9904    0.9917 H   0  0  0  0  0  0  0  0  0  0  0  0
   -2.2828    1.7868    2.8915 H   0  0  0  0  0  0  0  0  0  0  0  0
   -2.1786    3.8532    3.9432 H   0  0  0  0  0  0  0  0  0  0  0  0
   -3.7511    3.1436    4.2966 H   0  0  0  0  0  0  0  0  0  0  0  0
   -2.1461    6.0630    2.6312 H   0  0  0  0  0  0  0  0  0  0  0  0
   -3.5700    8.0557    2.0469 H   0  0  0  0  0  0  0  0  0  0  0  0
   -7.1105    5.7943    2.8888 H   0  0  0  0  0  0  0  0  0  0  0  0
   -5.7676    3.8845    3.4442 H   0  0  0  0  0  0  0  0  0  0  0  0
   -7.1606    8.0828    1.7628 H   0  0  0  0  0  0  0  0  0  0  0  0
   -4.2917    1.8979    0.0168 H   0  0  0  0  0  0  0  0  0  0  0  0
   -6.1054    0.1632    1.7888 H   0  0  0  0  0  0  0  0  0  0  0  0
   -6.2479   -2.2527    1.1462 H   0  0  0  0  0  0  0  0  0  0  0  0
   -5.0672   -4.1835    0.4857 H   0  0  0  0  0  0  0  0  0  0  0  0
   -2.3775   -4.8712   -0.0632 H   0  0  0  0  0  0  0  0  0  0  0  0
   -0.9618   -2.5037    1.2314 H   0  0  0  0  0  0  0  0  0  0  0  0
    1.3658   -2.0812    0.6312 H   0  0  0  0  0  0  0  0  0  0  0  0
    0.9190   -4.0737    1.8500 H   0  0  0  0  0  0  0  0  0  0  0  0
   -0.0575   -5.4270    1.2304 H   0  0  0  0  0  0  0  0  0  0  0  0
   -0.3484   -4.8995    4.9605 H   0  0  0  0  0  0  0  0  0  0  0  0
    0.0103   -6.3437    3.8750 H   0  0  0  0  0  0  0  0  0  0  0  0
   -4.6306   -2.3274   -1.9352 H   0  0  0  0  0  0  0  0  0  0  0  0
   -5.8790   -3.5387   -1.6598 H   0  0  0  0  0  0  0  0  0  0  0  0
   -4.1700   -5.3949   -1.7458 H   0  0  0  0  0  0  0  0  0  0  0  0
   -2.9205   -4.0871   -2.0974 H   0  0  0  0  0  0  0  0  0  0  0  0
   -3.5352   -5.0948   -5.5151 H   0  0  0  0  0  0  0  0  0  0  0  0
   -3.2279   -6.2284   -4.1965 H   0  0  0  0  0  0  0  0  0  0  0  0
   -7.3062    1.8077    0.0375 H   0  0  0  0  0  0  0  0  0  0  0  0
   -7.5973   -1.2218   -0.4354 H   0  0  0  0  0  0  0  0  0  0  0  0
   -8.3896   -0.3297    0.8853 H   0  0  0  0  0  0  0  0  0  0  0  0
   -8.7760   -0.0315   -2.1463 H   0  0  0  0  0  0  0  0  0  0  0  0
   -9.4895    1.1282   -0.9214 H   0  0  0  0  0  0  0  0  0  0  0  0
   -9.8600   -0.6116   -0.8682 H   0  0  0  0  0  0  0  0  0  0  0  0
   -5.4146    1.4933   -1.6486 H   0  0  0  0  0  0  0  0  0  0  0  0
   -6.0499   -0.1524   -1.9319 H   0  0  0  0  0  0  0  0  0  0  0  0
   -7.0959    1.3577   -2.2032 H   0  0  0  0  0  0  0  0  0  0  0  0
    6.7128   -2.9774   -1.1910 H   0  0  0  0  0  0  0  0  0  0  0  0
    5.5833   -3.4138    0.1591 H   0  0  0  0  0  0  0  0  0  0  0  0
    5.3488    0.1998   -0.5218 H   0  0  0  0  0  0  0  0  0  0  0  0
    7.4301    0.2151    1.6796 H   0  0  0  0  0  0  0  0  0  0  0  0
    4.1120    0.8606    0.8194 H   0  0  0  0  0  0  0  0  0  0  0  0
    2.5395    2.1334    1.9191 H   0  0  0  0  0  0  0  0  0  0  0  0
    3.7364    2.2930    3.2584 H   0  0  0  0  0  0  0  0  0  0  0  0
    5.4208    5.0897    1.1147 H   0  0  0  0  0  0  0  0  0  0  0  0
    4.8729    3.8097   -0.0628 H   0  0  0  0  0  0  0  0  0  0  0  0
    7.2545    1.9494   -0.8513 H   0  0  0  0  0  0  0  0  0  0  0  0
    8.4257    0.6485   -0.5567 H   0  0  0  0  0  0  0  0  0  0  0  0
    9.5778    1.8839    1.1642 H   0  0  0  0  0  0  0  0  0  0  0  0
    9.2571    4.4982    0.6758 H   0  0  0  0  0  0  0  0  0  0  0  0
    7.5452    4.0926    0.6681 H   0  0  0  0  0  0  0  0  0  0  0  0
    8.5826    3.7395    2.1751 H   0  0  0  0  0  0  0  0  0  0  0  0
   10.7660    3.0697   -0.4046 H   0  0  0  0  0  0  0  0  0  0  0  0
    9.9079    1.7110   -1.2866 H   0  0  0  0  0  0  0  0  0  0  0  0
    9.2723    3.4454   -1.3942 H   0  0  0  0  0  0  0  0  0  0  0  0
  1  2  1  0
  2  3  1  0
  3  4  1  0
  4  5  1  0
  5  6  1  0
  6  7  2  0
  6  8  1  0
  8  9  1  0
  9 10  1  0
 10 11  1  0
 11 12  1  0
 12 13  1  0
 13 14  1  0
 14 15  2  0
 14 16  1  0
 16 17  1  0
 17 18  1  0
 18 19  1  0
 19 20  2  0
 20 21  1  0
 21 22  2  0
 22 23  1  0
 23 24  2  0
 22 25  1  0
 17 26  1  0
 26 27  2  0
 26 28  1  0
 28 29  1  0
 29 30  1  0
 30 31  2  0
 30 32  1  0
 32 33  1  0
 33 34  1  0
 34 35  2  0
 34 36  1  0
 36 37  1  0
 37 38  1  0
 38 39  2  0
 38 40  1  0
 37 41  1  0
 41 42  1  0
 42 43  2  0
 42 44  1  0
 33 45  1  0
 45 46  1  0
 46 47  1  0
 47 48  2  0
 47 49  1  0
 29 50  1  0
 50 51  1  0
 51 52  1  0
 50 53  1  0
  5 54  1  0
 54 55  1  0
 55 56  2  0
 55 57  1  0
 57 58  1  0
 58 59  1  0
 59 60  2  0
 59 61  1  0
 61 62  1  0
 62 63  1  0
 63 64  2  0
 63 65  1  0
 58 66  1  0
 66 67  1  0
 67 68  1  0
 67 69  1  0
 40  8  1  0
 24 19  1  0
  1 70  1  0
  2 71  1  0
  2 72  1  0
  3 73  1  0
  3 74  1  0
  4 75  1  0
  4 76  1  0
  8 77  1  6
  9 78  1  0
  9 79  1  0
 10 80  1  0
 10 81  1  0
 12 82  1  0
 12 83  1  0
 13 84  1  0
 13 85  1  0
 16 86  1  0
 17 87  1  1
 18 88  1  0
 18 89  1  0
 20 90  1  0
 21 91  1  0
 23 92  1  0
 24 93  1  0
 25 94  1  0
 28 95  1  0
 29 96  1  1
 32 97  1  0
 33 98  1  1
 36 99  1  0
 37100  1  1
 40101  1  0
 41102  1  0
 41103  1  0
 44104  1  0
 44105  1  0
 45106  1  0
 45107  1  0
 46108  1  0
 46109  1  0
 49110  1  0
 49111  1  0
 50112  1  1
 51113  1  0
 51114  1  0
 52115  1  0
 52116  1  0
 52117  1  0
 53118  1  0
 53119  1  0
 53120  1  0
 54121  1  0
 54122  1  0
 57123  1  0
 58124  1  1
 61125  1  0
 62126  1  0
 62127  1  0
 65128  1  0
 65129  1  0
 66130  1  0
 66131  1  0
 67132  1  0
 68133  1  0
 68134  1  0
 68135  1  0
 69136  1  0
 69137  1  0
 69138  1  0
M  END
>  <Ligand ID>  (1) 
LIG0001559

>  <Ligand>  (1) 
CHEMBL3354580

>  <SMILES>  (1) 
OCCCN(C(=O)[C@@H]1CCSCCC(=O)N[C@@H](Cc2ccc(cc2)O)C(=O)N[C@H](C(=O)N[C@H](C(=O)N[C@H](C(=O)N1)CC(=O)N)CCC(=O)N)[C@H](CC)C)CC(=O)N[C@H](C(=O)NCC(=O)N)CC(C)C

>  <CID>  (1) 
118720269.0

>  <ChEMBL ID>  (1) 
nan

>  <InChiKey>  (1) 
FKIJQOWAABLREG-FRGVEXLJSA-N

>  <InChi>  (1) 
InChI=1S/C44H69N11O13S/c1-5-25(4)38-43(67)51-28(11-12-33(45)58)40(64)53-32(21-34(46)59)41(65)52-29(13-17-69-18-14-36(61)49-31(42(66)54-38)20-26-7-9-27(57)10-8-26)44(68)55(15-6-16-56)23-37(62)50-30(19-24(2)3)39(63)48-22-35(47)60/h7-10,24-25,28-32,38,56-57H,5-6,11-23H2,1-4H3,(H2,45,58)(H2,46,59)(H2,47,60)(H,48,63)(H,49,61)(H,50,62)(H,51,67)(H,52,65)(H,53,64)(H,54,66)/t25-,28-,29-,30-,31-,32-,38-/m0/s1

>  <IUPAC Name>  (1) 
(4S,7S,10S,13S,16S)-7-(2-amino-2-oxoethyl)-N-[2-[[(2S)-1-[(2-amino-2-oxoethyl)amino]-4-methyl-1-oxopentan-2-yl]amino]-2-oxoethyl]-10-(3-amino-3-oxopropyl)-13-[(2S)-butan-2-yl]-16-[(4-hydroxyphenyl)methyl]-N-(3-hydroxypropyl)-6,9,12,15,18-pentaoxo-1-thia-5,8,11,14,17-pentazacycloicosane-4-carboxamide

$$$$
