
     RDKit          3D

 24 24  0  0  0  0  0  0  0  0999 V2000
   -0.9599   -0.4278    1.9731 O   0  0  0  0  0  0  0  0  0  0  0  0
   -0.6847   -0.7868    0.6603 C   0  0  2  0  0  0  0  0  0  0  0  0
    0.6614   -0.2778    0.3163 C   0  0  0  0  0  0  0  0  0  0  0  0
    1.5855   -1.0594   -0.3511 C   0  0  0  0  0  0  0  0  0  0  0  0
    2.8275   -0.5483   -0.6527 C   0  0  0  0  0  0  0  0  0  0  0  0
    3.2219    0.7334   -0.3217 C   0  0  0  0  0  0  0  0  0  0  0  0
    2.2917    1.5097    0.3460 C   0  0  0  0  0  0  0  0  0  0  0  0
    1.0349    1.0057    0.6562 C   0  0  0  0  0  0  0  0  0  0  0  0
   -1.7584   -0.3918   -0.3038 C   0  0  1  0  0  0  0  0  0  0  0  0
   -2.9766   -1.0646    0.1223 N   0  0  0  0  0  0  0  0  0  0  0  0
   -2.0546    1.0718   -0.3477 C   0  0  0  0  0  0  0  0  0  0  0  0
   -0.4413   -0.9695    2.6058 H   0  0  0  0  0  0  0  0  0  0  0  0
   -0.6871   -1.9155    0.6670 H   0  0  0  0  0  0  0  0  0  0  0  0
    1.3115   -2.0851   -0.6326 H   0  0  0  0  0  0  0  0  0  0  0  0
    3.5544   -1.1605   -1.1766 H   0  0  0  0  0  0  0  0  0  0  0  0
    4.2038    1.1087   -0.5711 H   0  0  0  0  0  0  0  0  0  0  0  0
    2.5863    2.5297    0.6171 H   0  0  0  0  0  0  0  0  0  0  0  0
    0.3756    1.6919    1.1814 H   0  0  0  0  0  0  0  0  0  0  0  0
   -1.4868   -0.7632   -1.2969 H   0  0  0  0  0  0  0  0  0  0  0  0
   -2.6942   -2.0073    0.4738 H   0  0  0  0  0  0  0  0  0  0  0  0
   -3.3341   -0.5345    0.9512 H   0  0  0  0  0  0  0  0  0  0  0  0
   -1.4898    1.5246   -1.2053 H   0  0  0  0  0  0  0  0  0  0  0  0
   -3.1362    1.2046   -0.6410 H   0  0  0  0  0  0  0  0  0  0  0  0
   -1.9509    1.6119    0.5972 H   0  0  0  0  0  0  0  0  0  0  0  0
  1  2  1  0
  2  3  1  0
  3  4  2  0
  4  5  1  0
  5  6  2  0
  6  7  1  0
  7  8  2  0
  2  9  1  0
  9 10  1  0
  9 11  1  0
  8  3  1  0
  1 12  1  0
  2 13  1  1
  4 14  1  0
  5 15  1  0
  6 16  1  0
  7 17  1  0
  8 18  1  0
  9 19  1  6
 10 20  1  0
 10 21  1  0
 11 22  1  0
 11 23  1  0
 11 24  1  0
M  END
>  <Ligand ID>  (1) 
LIG0002130

>  <Ligand>  (1) 
(-)-Norephedrine

>  <SMILES>  (1) 
O[C@H](c1ccccc1)[C@@H](N)C

>  <CID>  (1) 
10297.0

>  <ChEMBL ID>  (1) 
nan

>  <InChiKey>  (1) 
DLNKOYKMWOXYQA-CBAPKCEASA-N

>  <InChi>  (1) 
InChI=1S/C9H13NO/c1-7(10)9(11)8-5-3-2-4-6-8/h2-7,9,11H,10H2,1H3/t7-,9-/m0/s1

>  <IUPAC Name>  (1) 
(1R,2S)-2-amino-1-phenylpropan-1-ol

$$$$
