
     RDKit          3D

 34 37  0  0  0  0  0  0  0  0999 V2000
    0.3334   -4.2005   -0.8825 F   0  0  0  0  0  0  0  0  0  0  0  0
   -0.2532   -3.0023   -0.6558 C   0  0  0  0  0  0  0  0  0  0  0  0
   -1.5606   -2.9800   -0.2624 C   0  0  0  0  0  0  0  0  0  0  0  0
   -2.1919   -1.7808   -0.0230 C   0  0  0  0  0  0  0  0  0  0  0  0
   -1.5466   -0.5507   -0.1654 C   0  0  0  0  0  0  0  0  0  0  0  0
   -0.2300   -0.5745   -0.5603 C   0  0  0  0  0  0  0  0  0  0  0  0
    0.3989   -1.8030   -0.8010 C   0  0  0  0  0  0  0  0  0  0  0  0
    0.5809    0.6281   -0.7155 C   0  0  0  0  0  0  0  0  0  0  0  0
    1.3516    0.9294    0.5672 C   0  0  0  0  0  0  0  0  0  0  0  0
    2.6696    0.4206    0.3067 N   0  0  0  0  0  0  0  0  0  0  0  0
    2.8646    0.1475   -0.9801 C   0  0  0  0  0  0  0  0  0  0  0  0
    1.6578    0.4467   -1.7919 C   0  0  0  0  0  0  0  0  0  0  0  0
    4.1142   -0.3232   -1.1531 N   0  0  0  0  0  0  0  0  0  0  0  0
    4.7052   -0.3414    0.0546 C   0  0  0  0  0  0  0  0  0  0  0  0
    3.8072    0.1252    0.9889 C   0  0  0  0  0  0  0  0  0  0  0  0
   -2.3243    0.6267    0.0812 C   0  0  0  0  0  0  0  0  0  0  0  0
   -2.5502    1.6545   -0.7887 C   0  0  0  0  0  0  0  0  0  0  0  0
   -3.2842    2.7539   -0.4764 N   0  0  0  0  0  0  0  0  0  0  0  0
   -3.8338    2.8571    0.7638 C   0  0  0  0  0  0  0  0  0  0  0  0
   -3.6241    1.8537    1.6382 N   0  0  0  0  0  0  0  0  0  0  0  0
   -2.9005    0.7551    1.3522 C   0  0  0  0  0  0  0  0  0  0  0  0
   -2.1003   -3.8993   -0.1388 H   0  0  0  0  0  0  0  0  0  0  0  0
   -3.2348   -1.8104    0.2889 H   0  0  0  0  0  0  0  0  0  0  0  0
    1.4396   -1.8554   -1.1156 H   0  0  0  0  0  0  0  0  0  0  0  0
   -0.0299    1.5129   -0.9096 H   0  0  0  0  0  0  0  0  0  0  0  0
    1.4202    2.0173    0.7747 H   0  0  0  0  0  0  0  0  0  0  0  0
    0.8395    0.4156    1.4249 H   0  0  0  0  0  0  0  0  0  0  0  0
    1.3650   -0.3442   -2.4836 H   0  0  0  0  0  0  0  0  0  0  0  0
    1.7310    1.4300   -2.3309 H   0  0  0  0  0  0  0  0  0  0  0  0
    5.7260   -0.6793    0.2076 H   0  0  0  0  0  0  0  0  0  0  0  0
    4.0001    0.2251    2.0511 H   0  0  0  0  0  0  0  0  0  0  0  0
   -2.1576    1.6243   -1.7889 H   0  0  0  0  0  0  0  0  0  0  0  0
   -4.4143    3.7405    0.9915 H   0  0  0  0  0  0  0  0  0  0  0  0
   -2.7685   -0.0189    2.1013 H   0  0  0  0  0  0  0  0  0  0  0  0
  1  2  1  0
  2  3  2  0
  3  4  1  0
  4  5  2  0
  5  6  1  0
  6  7  2  0
  6  8  1  0
  8  9  1  0
  9 10  1  0
 10 11  1  0
 11 12  1  0
 11 13  2  0
 13 14  1  0
 14 15  2  0
  5 16  1  0
 16 17  2  0
 17 18  1  0
 18 19  2  0
 19 20  1  0
 20 21  2  0
  7  2  1  0
 12  8  1  0
 21 16  1  0
 15 10  1  0
  3 22  1  0
  4 23  1  0
  7 24  1  0
  8 25  1  0
  9 26  1  0
  9 27  1  0
 12 28  1  0
 12 29  1  0
 14 30  1  0
 15 31  1  0
 17 32  1  0
 19 33  1  0
 21 34  1  0
M  END
>  <Ligand ID>  (1) 
LIG0002867

>  <Ligand>  (1) 
CHEMBL506744

>  <SMILES>  (1) 
Fc1ccc(c(c1)C1Cn2c(C1)ncc2)c1cncnc1

>  <CID>  (1) 
44219718.0

>  <ChEMBL ID>  (1) 
nan

>  <InChiKey>  (1) 
VQAGIJGIBIOPGW-UHFFFAOYSA-N

>  <InChi>  (1) 
InChI=1S/C16H13FN4/c17-13-1-2-14(12-7-18-10-19-8-12)15(6-13)11-5-16-20-3-4-21(16)9-11/h1-4,6-8,10-11H,5,9H2

>  <IUPAC Name>  (1) 
6-(5-fluoro-2-pyrimidin-5-ylphenyl)-6,7-dihydro-5H-pyrrolo[1,2-a]imidazole

$$$$
