
     RDKit          3D

 28 28  0  0  0  0  0  0  0  0999 V2000
   -3.8350    0.3333    1.3513 N   0  0  0  0  0  0  0  0  0  0  0  0
   -3.3339   -0.4349    0.2161 C   0  0  0  0  0  0  0  0  0  0  0  0
   -1.8720   -0.8084    0.3875 C   0  0  1  0  0  0  0  0  0  0  0  0
   -1.3163   -1.6086   -0.7751 C   0  0  0  0  0  0  0  0  0  0  0  0
   -0.9149   -0.1429   -0.4949 C   0  0  2  0  0  0  0  0  0  0  0  0
    0.5243   -0.0122   -0.1995 C   0  0  0  0  0  0  0  0  0  0  0  0
    1.1331   -0.9271    0.6522 C   0  0  0  0  0  0  0  0  0  0  0  0
    2.4755   -0.8254    0.9429 C   0  0  0  0  0  0  0  0  0  0  0  0
    3.2736    0.1690    0.4162 C   0  0  0  0  0  0  0  0  0  0  0  0
    2.6651    1.0863   -0.4372 C   0  0  0  0  0  0  0  0  0  0  0  0
    1.3085    0.9863   -0.7331 C   0  0  0  0  0  0  0  0  0  0  0  0
    3.4882    2.1334   -0.9964 C   0  0  0  0  0  0  0  0  0  0  0  0
    4.1938    3.0068   -1.4551 C   0  0  0  0  0  0  0  0  0  0  0  0
    0.6899    0.0000    0.0000 Cl  0  0  0  0  0  0  0  0  0  0  0  0
   -4.8580    0.3483    1.2871 H   0  0  0  0  0  0  0  0  0  0  0  0
   -3.4290    0.0587    2.2560 H   0  0  0  0  0  0  0  0  0  0  0  0
   -3.9604   -1.3577    0.0549 H   0  0  0  0  0  0  0  0  0  0  0  0
   -3.4975    0.2221   -0.6748 H   0  0  0  0  0  0  0  0  0  0  0  0
   -1.6544   -1.1486    1.4146 H   0  0  0  0  0  0  0  0  0  0  0  0
   -0.6365   -2.4037   -0.4790 H   0  0  0  0  0  0  0  0  0  0  0  0
   -1.9474   -1.7398   -1.6824 H   0  0  0  0  0  0  0  0  0  0  0  0
   -1.2997    0.6341   -1.1820 H   0  0  0  0  0  0  0  0  0  0  0  0
    0.5725   -1.7421    1.1096 H   0  0  0  0  0  0  0  0  0  0  0  0
    2.9128   -1.5594    1.6124 H   0  0  0  0  0  0  0  0  0  0  0  0
    4.3241    0.2543    0.6394 H   0  0  0  0  0  0  0  0  0  0  0  0
    0.8685    1.7062   -1.3927 H   0  0  0  0  0  0  0  0  0  0  0  0
    4.8151    3.7720   -1.8381 H   0  0  0  0  0  0  0  0  0  0  0  0
   -0.6899    0.0000    0.0000 H   0  0  0  0  0  0  0  0  0  0  0  0
  1  2  1  0
  2  3  1  0
  3  4  1  0
  4  5  1  0
  5  6  1  0
  6  7  2  0
  7  8  1  0
  8  9  2  0
  9 10  1  0
 10 11  2  0
 10 12  1  0
 12 13  3  0
  5  3  1  0
 11  6  1  0
  1 15  1  0
  1 16  1  0
  2 17  1  0
  2 18  1  0
  3 19  1  1
  4 20  1  0
  4 21  1  0
  5 22  1  6
  7 23  1  0
  8 24  1  0
  9 25  1  0
 11 26  1  0
 13 27  1  0
 14 28  1  0
M  END
>  <Ligand ID>  (1) 
LIG0002328

>  <Ligand>  (1) 
CHEMBL450178

>  <SMILES>  (1) 
NC[C@H]1C[C@@H]1c1cccc(c1)C#C.Cl

>  <CID>  (1) 
44572368.0

>  <ChEMBL ID>  (1) 
nan

>  <InChiKey>  (1) 
ZMXHZUNYGHHQSC-MNMPKAIFSA-N

>  <InChi>  (1) 
InChI=1S/C12H13N.ClH/c1-2-9-4-3-5-10(6-9)12-7-11(12)8-13;/h1,3-6,11-12H,7-8,13H2;1H/t11-,12-;/m1./s1

>  <IUPAC Name>  (1) 
[(1S,2S)-2-(3-ethynylphenyl)cyclopropyl]methanamine;hydrochloride

$$$$
