
     RDKit          3D

 63 67  0  0  0  0  0  0  0  0999 V2000
    2.8352   -1.3332   -1.9213 O   0  0  0  0  0  0  0  0  0  0  0  0
    3.5505   -1.4899   -0.8780 C   0  0  0  0  0  0  0  0  0  0  0  0
    4.6123   -0.5097   -0.6911 C   0  0  0  0  0  0  0  0  0  0  0  0
    4.7797    0.4745   -1.6441 C   0  0  0  0  0  0  0  0  0  0  0  0
    5.7515    1.4287   -1.5323 N   0  0  0  0  0  0  0  0  0  0  0  0
    6.5933    1.4521   -0.4826 C   0  0  0  0  0  0  0  0  0  0  0  0
    6.4590    0.4791    0.4994 C   0  0  0  0  0  0  0  0  0  0  0  0
    5.4651   -0.5017    0.3906 C   0  0  0  0  0  0  0  0  0  0  0  0
    7.3252    0.4956    1.5905 C   0  0  0  0  0  0  0  0  0  0  0  0
    8.2898    1.4824    1.6574 C   0  0  0  0  0  0  0  0  0  0  0  0
    8.4041    2.4417    0.6663 C   0  0  0  0  0  0  0  0  0  0  0  0
    7.5529    2.4397   -0.4231 C   0  0  0  0  0  0  0  0  0  0  0  0
    3.3016   -2.5603    0.0223 N   0  0  0  0  0  0  0  0  0  0  0  0
    2.2495   -3.5328   -0.1539 C   0  0  0  0  0  0  0  0  0  0  0  0
    0.8590   -2.8657   -0.1696 C   0  0  0  0  0  0  0  0  0  0  0  0
    0.6254   -2.1581    1.1129 C   0  0  0  0  0  0  0  0  0  0  0  0
   -0.7047   -1.5021    1.2736 C   0  0  0  0  0  0  0  0  0  0  0  0
   -0.9830   -0.5169    0.3293 N   0  0  0  0  0  0  0  0  0  0  0  0
   -1.2687   -0.8106   -1.0110 C   0  0  0  0  0  0  0  0  0  0  0  0
   -2.5804   -0.1523   -1.4744 C   0  0  0  0  0  0  0  0  0  0  0  0
   -3.0234    0.7486   -0.4024 N   0  0  0  0  0  0  0  0  0  0  0  0
   -1.9732    1.6728    0.0603 C   0  0  0  0  0  0  0  0  0  0  0  0
   -0.9394    0.8296    0.7551 C   0  0  0  0  0  0  0  0  0  0  0  0
   -4.3182    0.7340    0.1469 C   0  0  0  0  0  0  0  0  0  0  0  0
   -4.4422    0.3928    1.4939 C   0  0  0  0  0  0  0  0  0  0  0  0
   -5.6802    0.3464    2.1108 C   0  0  0  0  0  0  0  0  0  0  0  0
   -6.8354    0.6332    1.4254 C   0  0  0  0  0  0  0  0  0  0  0  0
   -6.7186    0.9721    0.0905 C   0  0  0  0  0  0  0  0  0  0  0  0
   -5.4795    1.0180   -0.5244 C   0  0  0  0  0  0  0  0  0  0  0  0
   -5.4249    1.3630   -1.8446 C   0  0  0  0  0  0  0  0  0  0  0  0
   -6.5451    1.6648   -2.5855 C   0  0  0  0  0  0  0  0  0  0  0  0
   -7.7926    1.6198   -1.9726 C   0  0  0  0  0  0  0  0  0  0  0  0
   -7.8813    1.2704   -0.6222 C   0  0  0  0  0  0  0  0  0  0  0  0
    4.1628    0.5549   -2.5295 H   0  0  0  0  0  0  0  0  0  0  0  0
    5.3757   -1.2422    1.1539 H   0  0  0  0  0  0  0  0  0  0  0  0
    7.2322   -0.2486    2.3533 H   0  0  0  0  0  0  0  0  0  0  0  0
    8.9750    1.5285    2.4817 H   0  0  0  0  0  0  0  0  0  0  0  0
    9.1492    3.2282    0.6892 H   0  0  0  0  0  0  0  0  0  0  0  0
    7.6125    3.1741   -1.2179 H   0  0  0  0  0  0  0  0  0  0  0  0
    3.9289   -2.6288    0.8537 H   0  0  0  0  0  0  0  0  0  0  0  0
    2.3387   -4.0991   -1.1004 H   0  0  0  0  0  0  0  0  0  0  0  0
    2.2177   -4.2078    0.7070 H   0  0  0  0  0  0  0  0  0  0  0  0
    0.1374   -3.6903   -0.2886 H   0  0  0  0  0  0  0  0  0  0  0  0
    0.8633   -2.1599   -1.0248 H   0  0  0  0  0  0  0  0  0  0  0  0
    1.4582   -1.3930    1.2723 H   0  0  0  0  0  0  0  0  0  0  0  0
    0.8230   -2.8759    1.9594 H   0  0  0  0  0  0  0  0  0  0  0  0
   -0.6878   -1.0092    2.2986 H   0  0  0  0  0  0  0  0  0  0  0  0
   -1.5262   -2.2745    1.3832 H   0  0  0  0  0  0  0  0  0  0  0  0
   -1.4113   -1.8752   -1.2320 H   0  0  0  0  0  0  0  0  0  0  0  0
   -0.4788   -0.4147   -1.6750 H   0  0  0  0  0  0  0  0  0  0  0  0
   -3.3367   -0.8749   -1.7852 H   0  0  0  0  0  0  0  0  0  0  0  0
   -2.3250    0.4866   -2.3329 H   0  0  0  0  0  0  0  0  0  0  0  0
   -1.5162    2.1210   -0.8339 H   0  0  0  0  0  0  0  0  0  0  0  0
   -2.4034    2.4515    0.7222 H   0  0  0  0  0  0  0  0  0  0  0  0
    0.0705    1.2341    0.4454 H   0  0  0  0  0  0  0  0  0  0  0  0
   -1.0435    0.9051    1.8633 H   0  0  0  0  0  0  0  0  0  0  0  0
   -3.5789    0.1546    2.0994 H   0  0  0  0  0  0  0  0  0  0  0  0
   -5.7412    0.0787    3.1565 H   0  0  0  0  0  0  0  0  0  0  0  0
   -7.8211    0.6111    1.8589 H   0  0  0  0  0  0  0  0  0  0  0  0
   -4.4779    1.4118   -2.3510 H   0  0  0  0  0  0  0  0  0  0  0  0
   -6.4986    1.9415   -3.6460 H   0  0  0  0  0  0  0  0  0  0  0  0
   -8.6999    1.8560   -2.5435 H   0  0  0  0  0  0  0  0  0  0  0  0
   -8.8617    1.2303   -0.1214 H   0  0  0  0  0  0  0  0  0  0  0  0
  1  2  2  0
  2  3  1  0
  3  4  2  0
  4  5  1  0
  5  6  2  0
  6  7  1  0
  7  8  2  0
  7  9  1  0
  9 10  2  0
 10 11  1  0
 11 12  2  0
  2 13  1  0
 13 14  1  0
 14 15  1  0
 15 16  1  0
 16 17  1  0
 17 18  1  0
 18 19  1  0
 19 20  1  0
 20 21  1  0
 21 22  1  0
 22 23  1  0
 21 24  1  0
 24 25  2  0
 25 26  1  0
 26 27  2  0
 27 28  1  0
 28 29  2  0
 29 30  1  0
 30 31  2  0
 31 32  1  0
 32 33  2  0
  8  3  1  0
 23 18  1  0
 29 24  1  0
 12  6  1  0
 33 28  1  0
  4 34  1  0
  8 35  1  0
  9 36  1  0
 10 37  1  0
 11 38  1  0
 12 39  1  0
 13 40  1  0
 14 41  1  0
 14 42  1  0
 15 43  1  0
 15 44  1  0
 16 45  1  0
 16 46  1  0
 17 47  1  0
 17 48  1  0
 19 49  1  0
 19 50  1  0
 20 51  1  0
 20 52  1  0
 22 53  1  0
 22 54  1  0
 23 55  1  0
 23 56  1  0
 25 57  1  0
 26 58  1  0
 27 59  1  0
 30 60  1  0
 31 61  1  0
 32 62  1  0
 33 63  1  0
M  END
>  <Ligand ID>  (1) 
LIG0003161

>  <Ligand>  (1) 
CHEMBL3597635

>  <SMILES>  (1) 
O=C(c1cnc2c(c1)cccc2)NCCCCN1CCN(CC1)c1cccc2c1cccc2

>  <CID>  (1) 
86280005.0

>  <ChEMBL ID>  (1) 
nan

>  <InChiKey>  (1) 
RRYFTJVIXONIOF-UHFFFAOYSA-N

>  <InChi>  (1) 
InChI=1S/C28H30N4O/c33-28(24-20-23-9-2-4-12-26(23)30-21-24)29-14-5-6-15-31-16-18-32(19-17-31)27-13-7-10-22-8-1-3-11-25(22)27/h1-4,7-13,20-21H,5-6,14-19H2,(H,29,33)

>  <IUPAC Name>  (1) 
N-[4-(4-naphthalen-1-ylpiperazin-1-yl)butyl]quinoline-3-carboxamide

$$$$
