
     RDKit          3D

 84 91  0  0  0  0  0  0  0  0999 V2000
    7.6972    4.3302   -1.0242 O   0  0  0  0  0  0  0  0  0  0  0  0
    6.7339    3.4309   -0.5736 C   0  0  0  0  0  0  0  0  0  0  0  0
    7.2691    2.0018   -0.6266 C   0  0  0  0  0  0  0  0  0  0  0  0
    6.2705    1.0496   -0.0999 C   0  0  0  0  0  0  0  0  0  0  0  0
    5.1523    0.7325   -0.8373 C   0  0  0  0  0  0  0  0  0  0  0  0
    4.2501   -0.1754   -0.2922 C   0  0  0  0  0  0  0  0  0  0  0  0
    4.4228   -0.7618    0.9328 C   0  0  0  0  0  0  0  0  0  0  0  0
    5.5572   -0.4186    1.6429 C   0  0  0  0  0  0  0  0  0  0  0  0
    6.4773    0.4761    1.1415 C   0  0  0  0  0  0  0  0  0  0  0  0
    3.4528   -1.7330    1.5322 C   0  0  0  0  0  0  0  0  0  0  0  0
    2.5762   -1.0581    2.3498 O   0  0  0  0  0  0  0  0  0  0  0  0
    1.8093   -0.1231    1.7199 C   0  0  0  0  0  0  0  0  0  0  0  0
    0.8383   -0.6385    0.6998 C   0  0  2  0  0  0  0  0  0  0  0  0
    0.1154    0.5645    0.0983 C   0  0  0  0  0  0  0  0  0  0  0  0
   -1.3530    0.3814    0.2652 C   0  0  2  0  0  0  0  0  0  0  0  0
   -1.5751    0.3633    1.7825 C   0  0  0  0  0  0  0  0  0  0  0  0
   -0.9523   -0.8714    2.3595 C   0  0  0  0  0  0  0  0  0  0  0  0
   -0.1689   -1.6381    1.3219 C   0  0  2  0  0  0  0  0  0  0  0  0
    0.5923   -2.6102    1.9175 O   0  0  0  0  0  0  0  0  0  0  0  0
   -0.1131   -3.5904    2.5516 C   0  0  0  0  0  0  0  0  0  0  0  0
   -0.9688   -2.1351    0.1809 C   0  0  2  0  0  0  0  0  0  0  0  0
   -1.7529   -0.9226   -0.3295 C   0  0  2  0  0  0  0  0  0  0  0  0
   -1.7060   -0.9461   -1.7990 C   0  0  0  0  0  0  0  0  0  0  0  0
   -2.3276    0.2500   -2.4194 C   0  0  0  0  0  0  0  0  0  0  0  0
   -2.0828    1.4713   -1.7846 N   0  0  0  0  0  0  0  0  0  0  0  0
   -2.2189    1.4477   -0.3537 C   0  0  1  0  0  0  0  0  0  0  0  0
   -3.6817    1.1781   -0.1081 C   0  0  0  0  0  0  0  0  0  0  0  0
   -4.0256   -0.2007    0.2725 C   0  0  0  0  0  0  0  0  0  0  0  0
   -3.0961   -1.1811    0.2354 C   0  0  0  0  0  0  0  0  0  0  0  0
   -3.2147   -2.4819    0.6212 C   0  0  0  0  0  0  0  0  0  0  0  0
   -1.9813   -3.0671    0.4006 O   0  0  0  0  0  0  0  0  0  0  0  0
   -4.4612   -2.8530    1.1110 C   0  0  0  0  0  0  0  0  0  0  0  0
   -4.6304   -4.1534    1.5081 O   0  0  0  0  0  0  0  0  0  0  0  0
   -5.8079   -4.7263    2.0225 C   0  0  0  0  0  0  0  0  0  0  0  0
   -5.4676   -1.8868    1.1713 C   0  0  0  0  0  0  0  0  0  0  0  0
   -5.2814   -0.5774    0.7673 C   0  0  0  0  0  0  0  0  0  0  0  0
   -1.4668    2.5381   -2.4075 C   0  0  0  0  0  0  0  0  0  0  0  0
   -2.2100    3.2394   -3.5105 C   0  0  0  0  0  0  0  0  0  0  0  0
   -3.5693    3.8481   -3.0300 C   0  0  0  0  0  0  0  0  0  0  0  0
   -3.4604    2.7706   -4.0994 C   0  0  0  0  0  0  0  0  0  0  0  0
    7.6036    1.7093   -1.9575 O   0  0  0  0  0  0  0  0  0  0  0  0
    8.4968    3.9201   -1.4069 H   0  0  0  0  0  0  0  0  0  0  0  0
    5.8418    3.5010   -1.2611 H   0  0  0  0  0  0  0  0  0  0  0  0
    6.3899    3.6914    0.4312 H   0  0  0  0  0  0  0  0  0  0  0  0
    8.1976    1.9488   -0.0346 H   0  0  0  0  0  0  0  0  0  0  0  0
    4.9916    1.1857   -1.8181 H   0  0  0  0  0  0  0  0  0  0  0  0
    3.3930   -0.4029   -0.8900 H   0  0  0  0  0  0  0  0  0  0  0  0
    5.7564   -0.8391    2.6067 H   0  0  0  0  0  0  0  0  0  0  0  0
    7.3571    0.7436    1.6914 H   0  0  0  0  0  0  0  0  0  0  0  0
    2.9600   -2.2990    0.7086 H   0  0  0  0  0  0  0  0  0  0  0  0
    4.0263   -2.4550    2.1566 H   0  0  0  0  0  0  0  0  0  0  0  0
    1.2277    0.4872    2.4648 H   0  0  0  0  0  0  0  0  0  0  0  0
    2.4627    0.6096    1.1668 H   0  0  0  0  0  0  0  0  0  0  0  0
    1.3196   -1.2192   -0.1025 H   0  0  0  0  0  0  0  0  0  0  0  0
    0.3849    1.5018    0.6377 H   0  0  0  0  0  0  0  0  0  0  0  0
    0.4260    0.7280   -0.9547 H   0  0  0  0  0  0  0  0  0  0  0  0
   -0.9926    1.2533    2.1585 H   0  0  0  0  0  0  0  0  0  0  0  0
   -2.6048    0.5247    2.0838 H   0  0  0  0  0  0  0  0  0  0  0  0
   -1.7610   -1.5248    2.7913 H   0  0  0  0  0  0  0  0  0  0  0  0
   -0.2499   -0.6723    3.2111 H   0  0  0  0  0  0  0  0  0  0  0  0
    0.6631   -4.2851    3.0025 H   0  0  0  0  0  0  0  0  0  0  0  0
   -0.7814   -3.2705    3.3502 H   0  0  0  0  0  0  0  0  0  0  0  0
   -0.6668   -4.2365    1.8361 H   0  0  0  0  0  0  0  0  0  0  0  0
   -0.2754   -2.4786   -0.6101 H   0  0  0  0  0  0  0  0  0  0  0  0
   -2.3054   -1.8395   -2.1660 H   0  0  0  0  0  0  0  0  0  0  0  0
   -0.6826   -1.1635   -2.1896 H   0  0  0  0  0  0  0  0  0  0  0  0
   -1.9808    0.3089   -3.4836 H   0  0  0  0  0  0  0  0  0  0  0  0
   -3.4452    0.0665   -2.3797 H   0  0  0  0  0  0  0  0  0  0  0  0
   -1.9374    2.4123    0.0769 H   0  0  0  0  0  0  0  0  0  0  0  0
   -4.2684    1.3779   -1.0529 H   0  0  0  0  0  0  0  0  0  0  0  0
   -4.1129    1.9253    0.6113 H   0  0  0  0  0  0  0  0  0  0  0  0
   -5.6721   -5.0075    3.1024 H   0  0  0  0  0  0  0  0  0  0  0  0
   -6.6977   -4.1063    1.9348 H   0  0  0  0  0  0  0  0  0  0  0  0
   -6.0082   -5.6918    1.5023 H   0  0  0  0  0  0  0  0  0  0  0  0
   -6.4523   -2.1419    1.5481 H   0  0  0  0  0  0  0  0  0  0  0  0
   -6.0601    0.1567    0.8191 H   0  0  0  0  0  0  0  0  0  0  0  0
   -0.4384    2.2644   -2.7704 H   0  0  0  0  0  0  0  0  0  0  0  0
   -1.2607    3.3375   -1.6392 H   0  0  0  0  0  0  0  0  0  0  0  0
   -1.5877    3.9364   -4.1063 H   0  0  0  0  0  0  0  0  0  0  0  0
   -3.9085    3.5827   -2.0176 H   0  0  0  0  0  0  0  0  0  0  0  0
   -3.7784    4.8791   -3.3730 H   0  0  0  0  0  0  0  0  0  0  0  0
   -3.6802    3.1096   -5.1499 H   0  0  0  0  0  0  0  0  0  0  0  0
   -4.0133    1.8713   -3.8433 H   0  0  0  0  0  0  0  0  0  0  0  0
    8.4833    1.2777   -1.9954 H   0  0  0  0  0  0  0  0  0  0  0  0
  1  2  1  0
  2  3  1  0
  3  4  1  0
  4  5  2  0
  5  6  1  0
  6  7  2  0
  7  8  1  0
  8  9  2  0
  7 10  1  0
 10 11  1  0
 11 12  1  0
 12 13  1  0
 13 14  1  0
 15 14  1  1
 15 16  1  0
 16 17  1  0
 17 18  1  0
 18 19  1  1
 19 20  1  0
 18 21  1  0
 21 22  1  0
 22 23  1  6
 23 24  1  0
 24 25  1  0
 25 26  1  0
 26 27  1  0
 27 28  1  0
 28 29  1  0
 29 30  2  0
 30 31  1  0
 30 32  1  0
 32 33  1  0
 33 34  1  0
 32 35  2  0
 35 36  1  0
 25 37  1  0
 37 38  1  0
 38 39  1  0
 39 40  1  0
  3 41  1  0
  9  4  1  0
 18 13  1  0
 31 21  1  0
 40 38  1  0
 26 15  1  0
 36 28  2  0
 22 15  1  0
 29 22  1  0
  1 42  1  0
  2 43  1  0
  2 44  1  0
  3 45  1  0
  5 46  1  0
  6 47  1  0
  8 48  1  0
  9 49  1  0
 10 50  1  0
 10 51  1  0
 12 52  1  0
 12 53  1  0
 13 54  1  6
 14 55  1  0
 14 56  1  0
 16 57  1  0
 16 58  1  0
 17 59  1  0
 17 60  1  0
 20 61  1  0
 20 62  1  0
 20 63  1  0
 21 64  1  6
 23 65  1  0
 23 66  1  0
 24 67  1  0
 24 68  1  0
 26 69  1  1
 27 70  1  0
 27 71  1  0
 34 72  1  0
 34 73  1  0
 34 74  1  0
 35 75  1  0
 36 76  1  0
 37 77  1  0
 37 78  1  0
 38 79  1  0
 39 80  1  0
 39 81  1  0
 40 82  1  0
 40 83  1  0
 41 84  1  0
M  END
>  <Ligand ID>  (1) 
LIG0004778

>  <Ligand>  (1) 
CHEMBL3923565

>  <SMILES>  (1) 
OCC(c1ccc(cc1)COC[C@@H]1C[C@@]23CC[C@@]1(OC)[C@@H]1[C@@]43CCN([C@H]2Cc2c4c(O1)c(OC)cc2)CC1CC1)O

>  <CID>  (1) 
134139471.0

>  <ChEMBL ID>  (1) 
nan

>  <InChiKey>  (1) 
RTJWYSXNAXKJOC-WFHZNWECSA-N

>  <InChi>  (1) 
InChI=1S/C34H43NO6/c1-38-27-10-9-24-15-28-32-11-12-34(39-2,25(16-32)20-40-19-22-5-7-23(8-6-22)26(37)18-36)31-33(32,29(24)30(27)41-31)13-14-35(28)17-21-3-4-21/h5-10,21,25-26,28,31,36-37H,3-4,11-20H2,1-2H3/t25-,26?,28-,31-,32-,33+,34-/m0/s1

>  <IUPAC Name>  (1) 
1-[4-[[(1R,2R,6S,14S,15S,16S)-5-(cyclopropylmethyl)-11,15-dimethoxy-13-oxa-5-azahexacyclo[13.2.2.12,8.01,6.02,14.012,20]icosa-8(20),9,11-trien-16-yl]methoxymethyl]phenyl]ethane-1,2-diol

$$$$
