
     RDKit          3D

 63 66  0  0  0  0  0  0  0  0999 V2000
   -1.7356    1.7521   -1.6167 C   0  0  0  0  0  0  0  0  0  0  0  0
   -1.1003    0.4088   -1.4730 C   0  0  2  0  0  0  0  0  0  0  0  0
   -1.1410   -0.1427   -0.0887 C   0  0  0  0  0  0  0  0  0  0  0  0
   -2.5220   -0.2926    0.3775 C   0  0  0  0  0  0  0  0  0  0  0  0
   -3.2629   -1.4816    0.2812 C   0  0  0  0  0  0  0  0  0  0  0  0
   -4.5020   -1.2802    0.7617 N   0  0  0  0  0  0  0  0  0  0  0  0
   -4.6224   -0.0138    1.1743 C   0  0  0  0  0  0  0  0  0  0  0  0
   -3.4064    0.5990    0.9408 C   0  0  0  0  0  0  0  0  0  0  0  0
   -3.2992    1.9209    1.3065 C   0  0  0  0  0  0  0  0  0  0  0  0
   -4.3345    2.6272    1.8769 C   0  0  0  0  0  0  0  0  0  0  0  0
   -5.5437    1.9983    2.1013 C   0  0  0  0  0  0  0  0  0  0  0  0
   -5.6870    0.6521    1.7421 C   0  0  0  0  0  0  0  0  0  0  0  0
   -6.9198    0.0622    1.9865 O   0  0  0  0  0  0  0  0  0  0  0  0
   -8.1728    0.0603    0.8396 S   0  0  0  0  0  0  0  0  0  0  0  0
   -7.9251   -0.9318   -0.2727 O   0  0  0  0  0  0  0  0  0  0  0  0
   -8.3097    1.4098    0.2173 O   0  0  0  0  0  0  0  0  0  0  0  0
   -9.6564   -0.4727    1.6567 C   0  0  0  0  0  0  0  0  0  0  0  0
    0.2736    0.4033   -1.9418 N   0  0  0  0  0  0  0  0  0  0  0  0
    0.9241   -0.8668   -1.9111 C   0  0  0  0  0  0  0  0  0  0  0  0
    2.3298   -0.6401   -2.4889 C   0  0  1  0  0  0  0  0  0  0  0  0
    3.0256    0.3040   -1.5516 C   0  0  0  0  0  0  0  0  0  0  0  0
    3.2270    1.6276   -1.8356 C   0  0  0  0  0  0  0  0  0  0  0  0
    3.8903    2.3877   -0.8835 C   0  0  0  0  0  0  0  0  0  0  0  0
    4.3360    1.8346    0.3144 C   0  0  0  0  0  0  0  0  0  0  0  0
    4.1285    0.4815    0.6014 C   0  0  0  0  0  0  0  0  0  0  0  0
    3.4675   -0.2434   -0.3641 C   0  0  0  0  0  0  0  0  0  0  0  0
    4.5730   -0.1123    1.8102 N   0  0  0  0  0  0  0  0  0  0  0  0
    5.3826   -1.6284    1.8893 S   0  0  0  0  0  0  0  0  0  0  0  0
    4.5155   -2.6776    1.2648 O   0  0  0  0  0  0  0  0  0  0  0  0
    5.6502   -1.9635    3.3517 O   0  0  0  0  0  0  0  0  0  0  0  0
    6.8625   -1.5136    1.0006 C   0  0  0  0  0  0  0  0  0  0  0  0
    7.4325   -0.4744    0.3108 C   0  0  0  0  0  0  0  0  0  0  0  0
    8.6085   -0.6654   -0.2967 C   0  0  0  0  0  0  0  0  0  0  0  0
    9.2028   -1.8843   -0.2117 C   0  0  0  0  0  0  0  0  0  0  0  0
    7.9915   -2.8740    0.8286 S   0  0  0  0  0  0  0  0  0  0  0  0
    3.0544   -1.8393   -2.5189 O   0  0  0  0  0  0  0  0  0  0  0  0
   -1.3039    2.4900   -0.9343 H   0  0  0  0  0  0  0  0  0  0  0  0
   -1.6062    2.0709   -2.6929 H   0  0  0  0  0  0  0  0  0  0  0  0
   -2.8153    1.6997   -1.4745 H   0  0  0  0  0  0  0  0  0  0  0  0
   -1.6434   -0.2654   -2.2050 H   0  0  0  0  0  0  0  0  0  0  0  0
   -0.6810   -1.1647   -0.0187 H   0  0  0  0  0  0  0  0  0  0  0  0
   -0.5905    0.5202    0.6381 H   0  0  0  0  0  0  0  0  0  0  0  0
   -2.9337   -2.4290   -0.1077 H   0  0  0  0  0  0  0  0  0  0  0  0
   -5.2880   -1.9867    0.8207 H   0  0  0  0  0  0  0  0  0  0  0  0
   -2.3586    2.4049    1.1414 H   0  0  0  0  0  0  0  0  0  0  0  0
   -4.2161    3.6752    2.1540 H   0  0  0  0  0  0  0  0  0  0  0  0
   -6.3427    2.5609    2.5463 H   0  0  0  0  0  0  0  0  0  0  0  0
  -10.5800   -0.0957    1.1708 H   0  0  0  0  0  0  0  0  0  0  0  0
   -9.5826   -0.1842    2.7172 H   0  0  0  0  0  0  0  0  0  0  0  0
   -9.6473   -1.5909    1.6606 H   0  0  0  0  0  0  0  0  0  0  0  0
    0.2788    0.7859   -2.9069 H   0  0  0  0  0  0  0  0  0  0  0  0
    0.4007   -1.6751   -2.4536 H   0  0  0  0  0  0  0  0  0  0  0  0
    1.1100   -1.2284   -0.8657 H   0  0  0  0  0  0  0  0  0  0  0  0
    2.2546   -0.2118   -3.4900 H   0  0  0  0  0  0  0  0  0  0  0  0
    2.8764    2.0383   -2.7654 H   0  0  0  0  0  0  0  0  0  0  0  0
    4.0733    3.4515   -1.0676 H   0  0  0  0  0  0  0  0  0  0  0  0
    4.8574    2.4655    1.0460 H   0  0  0  0  0  0  0  0  0  0  0  0
    3.2996   -1.2957   -0.1521 H   0  0  0  0  0  0  0  0  0  0  0  0
    4.3786    0.4363    2.6938 H   0  0  0  0  0  0  0  0  0  0  0  0
    6.8967    0.5043    0.2778 H   0  0  0  0  0  0  0  0  0  0  0  0
    9.1143    0.1502   -0.8724 H   0  0  0  0  0  0  0  0  0  0  0  0
   10.1115   -2.3386   -0.5735 H   0  0  0  0  0  0  0  0  0  0  0  0
    3.2021   -2.1061   -3.4656 H   0  0  0  0  0  0  0  0  0  0  0  0
  1  2  1  0
  2  3  1  0
  3  4  1  0
  4  5  2  0
  5  6  1  0
  6  7  1  0
  7  8  2  0
  8  9  1  0
  9 10  2  0
 10 11  1  0
 11 12  2  0
 12 13  1  0
 13 14  1  0
 14 15  2  0
 14 16  2  0
 14 17  1  0
  2 18  1  0
 18 19  1  0
 19 20  1  0
 20 21  1  0
 21 22  2  0
 22 23  1  0
 23 24  2  0
 24 25  1  0
 25 26  2  0
 25 27  1  0
 27 28  1  0
 28 29  2  0
 28 30  2  0
 28 31  1  0
 31 32  2  0
 32 33  1  0
 33 34  2  0
 34 35  1  0
 20 36  1  0
  8  4  1  0
 26 21  1  0
 35 31  1  0
 12  7  1  0
  1 37  1  0
  1 38  1  0
  1 39  1  0
  2 40  1  6
  3 41  1  0
  3 42  1  0
  5 43  1  0
  6 44  1  0
  9 45  1  0
 10 46  1  0
 11 47  1  0
 17 48  1  0
 17 49  1  0
 17 50  1  0
 18 51  1  0
 19 52  1  0
 19 53  1  0
 20 54  1  6
 22 55  1  0
 23 56  1  0
 24 57  1  0
 26 58  1  0
 27 59  1  0
 32 60  1  0
 33 61  1  0
 34 62  1  0
 36 63  1  0
M  END
>  <Ligand ID>  (1) 
LIG0002223

>  <Ligand>  (1) 
CHEMBL184407

>  <SMILES>  (1) 
C[C@H](Cc1c[nH]c2c1cccc2OS(=O)(=O)C)NC[C@@H](c1cccc(c1)NS(=O)(=O)c1cccs1)O

>  <CID>  (1) 
11432806.0

>  <ChEMBL ID>  (1) 
nan

>  <InChiKey>  (1) 
ATOBZBFTPJRCNY-IERDGZPVSA-N

>  <InChi>  (1) 
InChI=1S/C24H27N3O6S3/c1-16(12-18-14-26-24-20(18)8-4-9-22(24)33-35(2,29)30)25-15-21(28)17-6-3-7-19(13-17)27-36(31,32)23-10-5-11-34-23/h3-11,13-14,16,21,25-28H,12,15H2,1-2H3/t16-,21+/m1/s1

>  <IUPAC Name>  (1) 
[3-[(2R)-2-[[(2R)-2-hydroxy-2-[3-(thiophen-2-ylsulfonylamino)phenyl]ethyl]amino]propyl]-1H-indol-7-yl] methanesulfonate

$$$$
