
     RDKit          3D

 49 51  0  0  0  0  0  0  0  0999 V2000
   -3.9673   -3.4385   -0.7411 O   0  0  0  0  0  0  0  0  0  0  0  0
   -3.8842   -2.0490   -0.6919 C   0  0  2  0  0  0  0  0  0  0  0  0
   -2.7862   -1.5815    0.2391 C   0  0  1  0  0  0  0  0  0  0  0  0
   -1.4628   -1.4553   -0.4871 C   0  0  0  0  0  0  0  0  0  0  0  0
   -0.4792   -0.9237    0.3425 O   0  0  0  0  0  0  0  0  0  0  0  0
    0.9520   -0.8149   -0.5551 P   0  0  0  0  0  0  0  0  0  0  0  0
    0.5488   -0.6103   -2.0117 O   0  0  0  0  0  0  0  0  0  0  0  0
    1.8557    0.5361   -0.1223 O   0  0  0  0  0  0  0  0  0  0  0  0
    3.3404    0.0329    0.5056 P   0  0  0  0  0  0  0  0  0  0  0  0
    3.8682   -1.1589   -0.2985 O   0  0  0  0  0  0  0  0  0  0  0  0
    4.5237    1.2620    0.3825 O   0  0  0  0  0  0  0  0  0  0  0  0
    5.8710    1.0312    0.3260 C   0  0  0  0  0  0  0  0  0  0  0  0
    6.6643    1.6781   -0.6087 C   0  0  0  0  0  0  0  0  0  0  0  0
    8.0360    1.4093   -0.6272 C   0  0  0  0  0  0  0  0  0  0  0  0
    8.5701    0.5038    0.2878 C   0  0  0  0  0  0  0  0  0  0  0  0
    7.7768   -0.1404    1.2193 C   0  0  0  0  0  0  0  0  0  0  0  0
    6.4215    0.1421    1.2181 C   0  0  0  0  0  0  0  0  0  0  0  0
    9.9728    0.2474    0.2476 N   0  0  0  0  0  0  0  0  0  0  0  0
   10.4792   -0.5455    1.0396 O   0  0  0  0  0  0  0  0  0  0  0  0
   10.8133    0.8620   -0.6611 O   0  0  0  0  0  0  0  0  0  0  0  0
    3.1478   -0.5136    2.0996 O   0  0  0  0  0  0  0  0  0  0  0  0
    1.8813   -2.1947   -0.3630 O   0  0  0  0  0  0  0  0  0  0  0  0
   -3.2138   -0.3384    0.6740 O   0  0  0  0  0  0  0  0  0  0  0  0
   -4.5763   -0.3413    0.7611 C   0  0  2  0  0  0  0  0  0  0  0  0
   -5.1071   -1.5341    0.0381 C   0  0  2  0  0  0  0  0  0  0  0  0
   -5.4755   -2.5262    0.9533 O   0  0  0  0  0  0  0  0  0  0  0  0
   -5.1859    0.9016    0.3089 N   0  0  0  0  0  0  0  0  0  0  0  0
   -5.3748    1.1405   -1.0177 C   0  0  0  0  0  0  0  0  0  0  0  0
   -5.9547    2.3255   -1.4270 C   0  0  0  0  0  0  0  0  0  0  0  0
   -6.3605    3.2999   -0.5387 C   0  0  0  0  0  0  0  0  0  0  0  0
   -6.8889    4.3801   -0.9088 O   0  0  0  0  0  0  0  0  0  0  0  0
   -6.1501    3.0143    0.7791 N   0  0  0  0  0  0  0  0  0  0  0  0
   -5.5854    1.8600    1.1760 C   0  0  0  0  0  0  0  0  0  0  0  0
   -5.3980    1.6114    2.3971 O   0  0  0  0  0  0  0  0  0  0  0  0
   -3.2685   -3.7537   -1.3833 H   0  0  0  0  0  0  0  0  0  0  0  0
   -3.7598   -1.6027   -1.6982 H   0  0  0  0  0  0  0  0  0  0  0  0
   -2.7041   -2.3427    1.0423 H   0  0  0  0  0  0  0  0  0  0  0  0
   -1.1379   -2.3898   -0.9463 H   0  0  0  0  0  0  0  0  0  0  0  0
   -1.6194   -0.7210   -1.3163 H   0  0  0  0  0  0  0  0  0  0  0  0
    6.2225    2.3823   -1.3140 H   0  0  0  0  0  0  0  0  0  0  0  0
    8.6520    1.9140   -1.3558 H   0  0  0  0  0  0  0  0  0  0  0  0
    8.1731   -0.8416    1.9320 H   0  0  0  0  0  0  0  0  0  0  0  0
    5.7768   -0.3507    1.9398 H   0  0  0  0  0  0  0  0  0  0  0  0
   -4.8429   -0.4290    1.8434 H   0  0  0  0  0  0  0  0  0  0  0  0
   -5.9375   -1.2996   -0.6560 H   0  0  0  0  0  0  0  0  0  0  0  0
   -4.8267   -3.2443    1.0490 H   0  0  0  0  0  0  0  0  0  0  0  0
   -5.0741    0.4087   -1.7528 H   0  0  0  0  0  0  0  0  0  0  0  0
   -6.0936    2.4921   -2.4736 H   0  0  0  0  0  0  0  0  0  0  0  0
   -6.4323    3.7062    1.5112 H   0  0  0  0  0  0  0  0  0  0  0  0
  1  2  1  0
  2  3  1  0
  3  4  1  0
  4  5  1  0
  5  6  1  0
  6  7  2  0
  6  8  1  0
  8  9  1  0
  9 10  2  0
  9 11  1  0
 11 12  1  0
 12 13  2  0
 13 14  1  0
 14 15  2  0
 15 16  1  0
 16 17  2  0
 15 18  1  0
 18 19  2  0
 18 20  1  0
  9 21  1  0
  6 22  1  0
  3 23  1  0
 23 24  1  0
 24 25  1  0
 25 26  1  0
 24 27  1  0
 27 28  1  0
 28 29  2  0
 29 30  1  0
 30 31  2  0
 30 32  1  0
 32 33  1  0
 33 34  2  0
 25  2  1  0
 33 27  1  0
 17 12  1  0
  1 35  1  0
  2 36  1  6
  3 37  1  1
  4 38  1  0
  4 39  1  0
 13 40  1  0
 14 41  1  0
 16 42  1  0
 17 43  1  0
 24 44  1  1
 25 45  1  6
 26 46  1  0
 28 47  1  0
 29 48  1  0
 32 49  1  0
M  CHG  4  18   1  20  -1  21  -1  22  -1
M  END
>  <Ligand ID>  (1) 
LIG0005873

>  <Ligand>  (1) 
BDBM50303349

>  <SMILES>  (1) 
O[C@@H]1[C@@H](COP(=O)(OP(=O)(Oc2ccc(cc2)[N+](=O)[O-])[O-])[O-])O[C@H]([C@@H]1O)n1ccc(=O)[nH]c1=O

>  <CID>  (1) 
91933959.0

>  <ChEMBL ID>  (1) 
nan

>  <InChiKey>  (1) 
UZZCUEXWSQEDIZ-FMKGYKFTSA-L

>  <InChi>  (1) 
InChI=1S/C15H17N3O14P2/c19-11-5-6-17(15(22)16-11)14-13(21)12(20)10(30-14)7-29-33(25,26)32-34(27,28)31-9-3-1-8(2-4-9)18(23)24/h1-6,10,12-14,20-21H,7H2,(H,25,26)(H,27,28)(H,16,19,22)/p-2/t10-,12-,13-,14-/m1/s1

>  <IUPAC Name>  (1) 
[[(2R,3S,4R,5R)-5-(2,4-dioxopyrimidin-1-yl)-3,4-dihydroxyoxolan-2-yl]methoxy-oxidophosphoryl] (4-nitrophenyl) phosphate

$$$$
