
     RDKit          3D

 51 55  0  0  0  0  0  0  0  0999 V2000
    1.8407   -3.0429   -2.2762 N   0  0  0  0  0  0  0  0  0  0  0  0
    2.6736   -1.9034   -1.9393 C   0  0  0  0  0  0  0  0  0  0  0  0
    2.1287   -1.1777   -0.7618 C   0  0  2  0  0  0  0  0  0  0  0  0
    0.8415   -0.6821   -0.9530 O   0  0  0  0  0  0  0  0  0  0  0  0
    0.2592   -0.4471    0.2952 C   0  0  1  0  0  0  0  0  0  0  0  0
    1.0140    0.4814    1.1720 C   0  0  0  0  0  0  0  0  0  0  0  0
    2.4015    0.7555    0.7038 C   0  0  0  0  0  0  0  0  0  0  0  0
    2.9475   -0.0759   -0.2587 C   0  0  0  0  0  0  0  0  0  0  0  0
    4.2329    0.1773   -0.6929 C   0  0  0  0  0  0  0  0  0  0  0  0
    4.9534    1.2463   -0.1681 C   0  0  0  0  0  0  0  0  0  0  0  0
    4.3708    2.0551    0.7940 C   0  0  0  0  0  0  0  0  0  0  0  0
    3.0943    1.8210    1.2395 C   0  0  0  0  0  0  0  0  0  0  0  0
    2.4661    2.6075    2.2060 O   0  0  0  0  0  0  0  0  0  0  0  0
    5.0583    3.1432    1.3512 O   0  0  0  0  0  0  0  0  0  0  0  0
   -1.2078   -0.1515    0.1690 C   0  0  0  0  0  0  0  0  0  0  0  0
   -1.8351   -1.3703   -0.4774 C   0  0  0  0  0  0  0  0  0  0  0  0
   -3.3418   -1.2679   -0.5135 C   0  0  0  0  0  0  0  0  0  0  0  0
   -3.9176   -1.0673    0.8640 C   0  0  0  0  0  0  0  0  0  0  0  0
   -3.3124    0.1704    1.4725 C   0  0  0  0  0  0  0  0  0  0  0  0
   -1.8041    0.0531    1.5397 C   0  0  0  0  0  0  0  0  0  0  0  0
   -3.5991    1.3964    0.6308 C   0  0  0  0  0  0  0  0  0  0  0  0
   -3.0392    1.1555   -0.7410 C   0  0  0  0  0  0  0  0  0  0  0  0
   -1.5244    1.0378   -0.6817 C   0  0  0  0  0  0  0  0  0  0  0  0
   -3.6815   -0.0608   -1.3499 C   0  0  0  0  0  0  0  0  0  0  0  0
    1.8332   -3.7835   -1.5627 H   0  0  0  0  0  0  0  0  0  0  0  0
    2.0972   -3.4693   -3.1846 H   0  0  0  0  0  0  0  0  0  0  0  0
    3.6715   -2.3260   -1.6977 H   0  0  0  0  0  0  0  0  0  0  0  0
    2.7949   -1.3027   -2.8450 H   0  0  0  0  0  0  0  0  0  0  0  0
    2.0438   -1.9260    0.0655 H   0  0  0  0  0  0  0  0  0  0  0  0
    0.2904   -1.4618    0.7891 H   0  0  0  0  0  0  0  0  0  0  0  0
    1.1599    0.0588    2.2103 H   0  0  0  0  0  0  0  0  0  0  0  0
    0.5453    1.4683    1.3450 H   0  0  0  0  0  0  0  0  0  0  0  0
    4.6852   -0.4666   -1.4531 H   0  0  0  0  0  0  0  0  0  0  0  0
    5.9706    1.4715   -0.4911 H   0  0  0  0  0  0  0  0  0  0  0  0
    2.3669    2.2659    3.1464 H   0  0  0  0  0  0  0  0  0  0  0  0
    5.0085    4.0718    0.9534 H   0  0  0  0  0  0  0  0  0  0  0  0
   -1.5917   -2.3052    0.0589 H   0  0  0  0  0  0  0  0  0  0  0  0
   -1.4915   -1.4053   -1.5436 H   0  0  0  0  0  0  0  0  0  0  0  0
   -3.7103   -2.1617   -1.0197 H   0  0  0  0  0  0  0  0  0  0  0  0
   -3.6666   -1.9286    1.5066 H   0  0  0  0  0  0  0  0  0  0  0  0
   -5.0085   -0.9166    0.7592 H   0  0  0  0  0  0  0  0  0  0  0  0
   -3.6730    0.3036    2.5174 H   0  0  0  0  0  0  0  0  0  0  0  0
   -1.3965    0.9802    1.9493 H   0  0  0  0  0  0  0  0  0  0  0  0
   -1.4927   -0.7739    2.2221 H   0  0  0  0  0  0  0  0  0  0  0  0
   -4.6591    1.6480    0.5520 H   0  0  0  0  0  0  0  0  0  0  0  0
   -3.0070    2.2238    1.1207 H   0  0  0  0  0  0  0  0  0  0  0  0
   -3.2420    2.0639   -1.3485 H   0  0  0  0  0  0  0  0  0  0  0  0
   -1.1917    1.9995   -0.2383 H   0  0  0  0  0  0  0  0  0  0  0  0
   -1.1549    0.9112   -1.7244 H   0  0  0  0  0  0  0  0  0  0  0  0
   -4.7695    0.0953   -1.2933 H   0  0  0  0  0  0  0  0  0  0  0  0
   -3.4320   -0.1881   -2.4179 H   0  0  0  0  0  0  0  0  0  0  0  0
  1  2  1  0
  2  3  1  0
  3  4  1  0
  4  5  1  0
  5  6  1  0
  6  7  1  0
  7  8  2  0
  8  9  1  0
  9 10  2  0
 10 11  1  0
 11 12  2  0
 12 13  1  0
 11 14  1  0
  5 15  1  0
 15 16  1  0
 16 17  1  0
 17 18  1  0
 18 19  1  0
 19 20  1  0
 19 21  1  0
 21 22  1  0
 22 23  1  0
 22 24  1  0
  8  3  1  0
 23 15  1  0
 12  7  1  0
 20 15  1  0
 24 17  1  0
  1 25  1  0
  1 26  1  0
  2 27  1  0
  2 28  1  0
  3 29  1  1
  5 30  1  1
  6 31  1  0
  6 32  1  0
  9 33  1  0
 10 34  1  0
 13 35  1  0
 14 36  1  0
 16 37  1  0
 16 38  1  0
 17 39  1  0
 18 40  1  0
 18 41  1  0
 19 42  1  0
 20 43  1  0
 20 44  1  0
 21 45  1  0
 21 46  1  0
 22 47  1  0
 23 48  1  0
 23 49  1  0
 24 50  1  0
 24 51  1  0
M  END
>  <Ligand ID>  (1) 
LIG0000819

>  <Ligand>  (1) 
A77636

>  <SMILES>  (1) 
NC[C@@H]1O[C@@H](Cc2c1ccc(c2O)O)C12CC3CC(C2)CC(C1)C3

>  <CID>  (1) 
6603703.0

>  <ChEMBL ID>  (1) 
nan

>  <InChiKey>  (1) 
QLJOSZATCBCBDR-DFKUFRTHSA-N

>  <InChi>  (1) 
InChI=1S/C20H27NO3/c21-10-17-14-1-2-16(22)19(23)15(14)6-18(24-17)20-7-11-3-12(8-20)5-13(4-11)9-20/h1-2,11-13,17-18,22-23H,3-10,21H2/t11?,12?,13?,17-,18-,20?/m0/s1

>  <IUPAC Name>  (1) 
(1R,3S)-3-(1-adamantyl)-1-(aminomethyl)-3,4-dihydro-1H-isochromene-5,6-diol

$$$$
