
     RDKit          3D

 81 84  0  0  0  0  0  0  0  0999 V2000
   11.7052   -1.1133   -2.2386 C   0  0  0  0  0  0  0  0  0  0  0  0
   10.4736   -1.7574   -1.8925 O   0  0  0  0  0  0  0  0  0  0  0  0
    9.4504   -1.0213   -1.2645 C   0  0  0  0  0  0  0  0  0  0  0  0
    9.6356    0.3175   -0.9840 C   0  0  0  0  0  0  0  0  0  0  0  0
    8.6116    1.0102   -0.3673 C   0  0  0  0  0  0  0  0  0  0  0  0
    7.4234    0.3575   -0.0418 C   0  0  0  0  0  0  0  0  0  0  0  0
    7.2755   -0.9789   -0.3373 C   0  0  0  0  0  0  0  0  0  0  0  0
    8.2928   -1.7068   -0.9606 C   0  0  0  0  0  0  0  0  0  0  0  0
    6.3817    1.1807    0.6184 C   0  0  2  0  0  0  0  0  0  0  0  0
    5.0503    0.5188    0.6739 C   0  0  1  0  0  0  0  0  0  0  0  0
    4.0233    1.1981    1.3797 N   0  0  0  0  0  0  0  0  0  0  0  0
    3.6652    2.5012    0.9498 C   0  0  0  0  0  0  0  0  0  0  0  0
    2.5115    3.0296    1.8221 C   0  0  0  0  0  0  0  0  0  0  0  0
    1.3791    2.0877    1.6415 C   0  0  0  0  0  0  0  0  0  0  0  0
    1.1707    0.9826    2.4374 C   0  0  0  0  0  0  0  0  0  0  0  0
    0.0948    0.1390    2.2198 C   0  0  0  0  0  0  0  0  0  0  0  0
   -0.7988    0.4049    1.1789 C   0  0  0  0  0  0  0  0  0  0  0  0
   -0.6074    1.5080    0.3694 C   0  0  0  0  0  0  0  0  0  0  0  0
    0.4798    2.3400    0.6075 C   0  0  0  0  0  0  0  0  0  0  0  0
   -1.9071   -0.5262    1.0105 C   0  0  0  0  0  0  0  0  0  0  0  0
   -1.7473   -1.8552    1.3259 C   0  0  0  0  0  0  0  0  0  0  0  0
   -2.7747   -2.7571    1.1778 C   0  0  0  0  0  0  0  0  0  0  0  0
   -4.0351   -2.3843    0.7017 C   0  0  0  0  0  0  0  0  0  0  0  0
   -4.1942   -1.0634    0.3879 C   0  0  0  0  0  0  0  0  0  0  0  0
   -3.1499   -0.1436    0.5379 C   0  0  0  0  0  0  0  0  0  0  0  0
   -5.4010   -0.6317   -0.0832 O   0  0  0  0  0  0  0  0  0  0  0  0
   -5.8043    0.6383   -0.4669 C   0  0  0  0  0  0  0  0  0  0  0  0
   -6.3082    0.6745   -1.9066 C   0  0  0  0  0  0  0  0  0  0  0  0
   -6.5282    2.1293   -2.2691 C   0  0  0  0  0  0  0  0  0  0  0  0
   -6.9714    2.9677   -1.0976 C   0  0  0  0  0  0  0  0  0  0  0  0
   -7.8274    2.1090   -0.1921 C   0  0  0  0  0  0  0  0  0  0  0  0
   -6.9884    1.0209    0.4049 C   0  0  0  0  0  0  0  0  0  0  0  0
   -5.0224   -3.4269    0.5952 C   0  0  0  0  0  0  0  0  0  0  0  0
   -4.7100   -4.6246    0.9323 O   0  0  0  0  0  0  0  0  0  0  0  0
   -6.3531   -3.2716    0.1417 N   0  0  0  0  0  0  0  0  0  0  0  0
   -7.3445   -4.6975    0.1094 S   0  0  0  0  0  0  0  0  0  0  0  0
   -6.7411   -5.6476   -0.8850 O   0  0  0  0  0  0  0  0  0  0  0  0
   -7.3746   -5.3861    1.4309 O   0  0  0  0  0  0  0  0  0  0  0  0
   -8.9787   -4.2991   -0.4868 C   0  0  0  0  0  0  0  0  0  0  0  0
    4.5365    0.1219   -0.7009 C   0  0  0  0  0  0  0  0  0  0  0  0
    6.2680    2.4195   -0.0231 O   0  0  0  0  0  0  0  0  0  0  0  0
   12.1874   -0.8359   -1.2599 H   0  0  0  0  0  0  0  0  0  0  0  0
   12.3126   -1.8283   -2.7969 H   0  0  0  0  0  0  0  0  0  0  0  0
   11.5295   -0.1664   -2.7748 H   0  0  0  0  0  0  0  0  0  0  0  0
   10.5558    0.8442   -1.2305 H   0  0  0  0  0  0  0  0  0  0  0  0
    8.7487    2.0514   -0.1463 H   0  0  0  0  0  0  0  0  0  0  0  0
    6.3733   -1.4846   -0.0912 H   0  0  0  0  0  0  0  0  0  0  0  0
    8.2072   -2.7452   -1.2023 H   0  0  0  0  0  0  0  0  0  0  0  0
    6.7200    1.3096    1.6760 H   0  0  0  0  0  0  0  0  0  0  0  0
    5.2100   -0.4594    1.2251 H   0  0  0  0  0  0  0  0  0  0  0  0
    4.0682    1.0848    2.4181 H   0  0  0  0  0  0  0  0  0  0  0  0
    3.3344    2.5060   -0.1066 H   0  0  0  0  0  0  0  0  0  0  0  0
    4.4453    3.2841    1.0529 H   0  0  0  0  0  0  0  0  0  0  0  0
    2.2623    4.0628    1.5575 H   0  0  0  0  0  0  0  0  0  0  0  0
    2.9177    3.0162    2.8612 H   0  0  0  0  0  0  0  0  0  0  0  0
    1.8425    0.7656    3.2368 H   0  0  0  0  0  0  0  0  0  0  0  0
   -0.0177   -0.7085    2.8723 H   0  0  0  0  0  0  0  0  0  0  0  0
   -1.3066    1.7083   -0.4386 H   0  0  0  0  0  0  0  0  0  0  0  0
    0.6256    3.2013   -0.0279 H   0  0  0  0  0  0  0  0  0  0  0  0
   -0.7990   -2.1771    1.6923 H   0  0  0  0  0  0  0  0  0  0  0  0
   -2.5542   -3.7846    1.4525 H   0  0  0  0  0  0  0  0  0  0  0  0
   -3.2593    0.9007    0.2951 H   0  0  0  0  0  0  0  0  0  0  0  0
   -5.0583    1.4342   -0.3909 H   0  0  0  0  0  0  0  0  0  0  0  0
   -5.5755    0.2642   -2.6227 H   0  0  0  0  0  0  0  0  0  0  0  0
   -7.2349    0.0724   -2.0048 H   0  0  0  0  0  0  0  0  0  0  0  0
   -5.5857    2.5196   -2.6628 H   0  0  0  0  0  0  0  0  0  0  0  0
   -7.2842    2.2259   -3.0820 H   0  0  0  0  0  0  0  0  0  0  0  0
   -6.1131    3.3378   -0.5288 H   0  0  0  0  0  0  0  0  0  0  0  0
   -7.5553    3.8396   -1.4671 H   0  0  0  0  0  0  0  0  0  0  0  0
   -8.1929    2.7612    0.6263 H   0  0  0  0  0  0  0  0  0  0  0  0
   -8.6834    1.7059   -0.7731 H   0  0  0  0  0  0  0  0  0  0  0  0
   -6.6200    1.3479    1.4012 H   0  0  0  0  0  0  0  0  0  0  0  0
   -7.6461    0.1485    0.6031 H   0  0  0  0  0  0  0  0  0  0  0  0
   -6.7210   -2.3762   -0.1522 H   0  0  0  0  0  0  0  0  0  0  0  0
   -9.4882   -5.2005   -0.8825 H   0  0  0  0  0  0  0  0  0  0  0  0
   -9.5804   -3.8698    0.3138 H   0  0  0  0  0  0  0  0  0  0  0  0
   -8.8623   -3.5514   -1.3015 H   0  0  0  0  0  0  0  0  0  0  0  0
    3.6883    0.7458   -1.0439 H   0  0  0  0  0  0  0  0  0  0  0  0
    4.1277   -0.9301   -0.6905 H   0  0  0  0  0  0  0  0  0  0  0  0
    5.3291    0.2404   -1.4635 H   0  0  0  0  0  0  0  0  0  0  0  0
    6.7916    2.3753   -0.8648 H   0  0  0  0  0  0  0  0  0  0  0  0
  1  2  1  0
  2  3  1  0
  3  4  2  0
  4  5  1  0
  5  6  2  0
  6  7  1  0
  7  8  2  0
  6  9  1  0
  9 10  1  0
 10 11  1  0
 11 12  1  0
 12 13  1  0
 13 14  1  0
 14 15  2  0
 15 16  1  0
 16 17  2  0
 17 18  1  0
 18 19  2  0
 17 20  1  0
 20 21  2  0
 21 22  1  0
 22 23  2  0
 23 24  1  0
 24 25  2  0
 24 26  1  0
 26 27  1  0
 27 28  1  0
 28 29  1  0
 29 30  1  0
 30 31  1  0
 31 32  1  0
 23 33  1  0
 33 34  2  0
 33 35  1  0
 35 36  1  0
 36 37  2  0
 36 38  2  0
 36 39  1  0
 10 40  1  0
  9 41  1  0
  8  3  1  0
 19 14  1  0
 25 20  1  0
 32 27  1  0
  1 42  1  0
  1 43  1  0
  1 44  1  0
  4 45  1  0
  5 46  1  0
  7 47  1  0
  8 48  1  0
  9 49  1  1
 10 50  1  1
 11 51  1  0
 12 52  1  0
 12 53  1  0
 13 54  1  0
 13 55  1  0
 15 56  1  0
 16 57  1  0
 18 58  1  0
 19 59  1  0
 21 60  1  0
 22 61  1  0
 25 62  1  0
 27 63  1  0
 28 64  1  0
 28 65  1  0
 29 66  1  0
 29 67  1  0
 30 68  1  0
 30 69  1  0
 31 70  1  0
 31 71  1  0
 32 72  1  0
 32 73  1  0
 35 74  1  0
 39 75  1  0
 39 76  1  0
 39 77  1  0
 40 78  1  0
 40 79  1  0
 40 80  1  0
 41 81  1  0
M  END
>  <Ligand ID>  (1) 
LIG0005157

>  <Ligand>  (1) 
CHEMBL562596

>  <SMILES>  (1) 
COc1ccc(cc1)[C@H]([C@@H](NCCc1ccc(cc1)c1ccc(c(c1)OC1CCCCC1)C(=O)NS(=O)(=O)C)C)O

>  <CID>  (1) 
45272758.0

>  <ChEMBL ID>  (1) 
nan

>  <InChiKey>  (1) 
NNPXPVJWXCKXKP-UGDMGKLASA-N

>  <InChi>  (1) 
InChI=1S/C32H40N2O6S/c1-22(31(35)25-13-16-27(39-2)17-14-25)33-20-19-23-9-11-24(12-10-23)26-15-18-29(32(36)34-41(3,37)38)30(21-26)40-28-7-5-4-6-8-28/h9-18,21-22,28,31,33,35H,4-8,19-20H2,1-3H3,(H,34,36)/t22-,31-/m0/s1

>  <IUPAC Name>  (1) 
2-cyclohexyloxy-4-[4-[2-[[(1R,2S)-1-hydroxy-1-(4-methoxyphenyl)propan-2-yl]amino]ethyl]phenyl]-N-methylsulfonylbenzamide

$$$$
