
     RDKit          3D

 48 48  0  0  0  0  0  0  0  0999 V2000
   -4.8044    2.9957   -1.4015 C   0  0  0  0  0  0  0  0  0  0  0  0
   -3.4411    2.4326   -0.9847 C   0  0  0  0  0  0  0  0  0  0  0  0
   -3.5823    1.2187   -0.2979 O   0  0  0  0  0  0  0  0  0  0  0  0
   -2.4890    0.5132    0.1821 C   0  0  0  0  0  0  0  0  0  0  0  0
   -1.1832    0.9446    0.0238 C   0  0  0  0  0  0  0  0  0  0  0  0
   -0.1264    0.1860    0.5316 C   0  0  0  0  0  0  0  0  0  0  0  0
   -0.4143   -1.0006    1.1933 C   0  0  0  0  0  0  0  0  0  0  0  0
   -1.7320   -1.4331    1.3515 C   0  0  0  0  0  0  0  0  0  0  0  0
   -2.7664   -0.6781    0.8473 C   0  0  0  0  0  0  0  0  0  0  0  0
   -4.0922   -1.1013    0.9996 O   0  0  0  0  0  0  0  0  0  0  0  0
   -4.3090   -2.3069    1.6770 C   0  0  0  0  0  0  0  0  0  0  0  0
   -5.7567   -2.6646    1.7838 C   0  0  0  0  0  0  0  0  0  0  0  0
   -6.0161   -3.7418    2.3850 O   0  0  0  0  0  0  0  0  0  0  0  0
   -6.7640   -1.8657    1.2562 O   0  0  0  0  0  0  0  0  0  0  0  0
    1.2869    0.6097    0.3844 C   0  0  0  0  0  0  0  0  0  0  0  0
    2.1299   -0.1598   -0.9966 P   0  0  0  0  0  0  0  0  0  0  0  0
    2.4854    0.8413   -2.0716 O   0  0  0  0  0  0  0  0  0  0  0  0
    3.4246   -1.2732   -0.5612 C   0  0  0  0  0  0  0  0  0  0  0  0
    4.6078   -0.8276    0.1621 C   0  0  0  0  0  0  0  0  0  0  0  0
    5.5346    0.1665   -0.3680 C   0  0  2  0  0  0  0  0  0  0  0  0
    4.9520    1.4927   -0.6413 C   0  0  0  0  0  0  0  0  0  0  0  0
    5.2624    2.0459   -1.7306 O   0  0  0  0  0  0  0  0  0  0  0  0
    4.0946    2.1663    0.2129 O   0  0  0  0  0  0  0  0  0  0  0  0
    6.3489   -0.2457   -1.4754 N   0  0  0  0  0  0  0  0  0  0  0  0
    0.9180   -1.1300   -1.7572 O   0  0  0  0  0  0  0  0  0  0  0  0
    1.9275    0.4393    1.6004 O   0  0  0  0  0  0  0  0  0  0  0  0
   -5.4991    2.1632   -1.6721 H   0  0  0  0  0  0  0  0  0  0  0  0
   -5.2269    3.6248   -0.5973 H   0  0  0  0  0  0  0  0  0  0  0  0
   -4.6412    3.5751   -2.3345 H   0  0  0  0  0  0  0  0  0  0  0  0
   -2.9110    3.2209   -0.4112 H   0  0  0  0  0  0  0  0  0  0  0  0
   -2.8572    2.2600   -1.9218 H   0  0  0  0  0  0  0  0  0  0  0  0
   -0.9825    1.8672   -0.4924 H   0  0  0  0  0  0  0  0  0  0  0  0
    0.3367   -1.6441    1.6141 H   0  0  0  0  0  0  0  0  0  0  0  0
   -1.9528   -2.3684    1.8736 H   0  0  0  0  0  0  0  0  0  0  0  0
   -3.7296   -3.1494    1.2105 H   0  0  0  0  0  0  0  0  0  0  0  0
   -3.8996   -2.2065    2.7026 H   0  0  0  0  0  0  0  0  0  0  0  0
   -7.7433   -2.1371    1.4002 H   0  0  0  0  0  0  0  0  0  0  0  0
    1.2769    1.7040    0.1991 H   0  0  0  0  0  0  0  0  0  0  0  0
    2.9492   -2.0870    0.0764 H   0  0  0  0  0  0  0  0  0  0  0  0
    3.6811   -1.8595   -1.4958 H   0  0  0  0  0  0  0  0  0  0  0  0
    4.2786   -0.4727    1.1824 H   0  0  0  0  0  0  0  0  0  0  0  0
    5.1711   -1.7787    0.4423 H   0  0  0  0  0  0  0  0  0  0  0  0
    6.2964    0.3728    0.4539 H   0  0  0  0  0  0  0  0  0  0  0  0
    4.1490    3.1744    0.2970 H   0  0  0  0  0  0  0  0  0  0  0  0
    5.9419   -0.9984   -2.0533 H   0  0  0  0  0  0  0  0  0  0  0  0
    6.8221    0.5037   -1.9725 H   0  0  0  0  0  0  0  0  0  0  0  0
    1.0532   -1.1968   -2.7154 H   0  0  0  0  0  0  0  0  0  0  0  0
    1.9915   -0.4899    1.9088 H   0  0  0  0  0  0  0  0  0  0  0  0
  1  2  1  0
  2  3  1  0
  3  4  1  0
  4  5  2  0
  5  6  1  0
  6  7  2  0
  7  8  1  0
  8  9  2  0
  9 10  1  0
 10 11  1  0
 11 12  1  0
 12 13  2  0
 12 14  1  0
  6 15  1  0
 15 16  1  0
 16 17  2  0
 16 18  1  0
 18 19  1  0
 19 20  1  0
 20 21  1  0
 21 22  2  0
 21 23  1  0
 20 24  1  0
 16 25  1  0
 15 26  1  0
  9  4  1  0
  1 27  1  0
  1 28  1  0
  1 29  1  0
  2 30  1  0
  2 31  1  0
  5 32  1  0
  7 33  1  0
  8 34  1  0
 11 35  1  0
 11 36  1  0
 14 37  1  0
 15 38  1  0
 18 39  1  0
 18 40  1  0
 19 41  1  0
 19 42  1  0
 20 43  1  1
 23 44  1  0
 24 45  1  0
 24 46  1  0
 25 47  1  0
 26 48  1  0
M  END
>  <Ligand ID>  (1) 
LIG0004474

>  <Ligand>  (1) 
US9212196, Derivative 19

>  <SMILES>  (1) 
CCOc1cc(ccc1OCC(=O)O)C(P(=O)(CC[C@H](C(=O)O)N)O)O

>  <CID>  (1) 
122197949.0

>  <ChEMBL ID>  (1) 
nan

>  <InChiKey>  (1) 
DUVRKQMGYBQIIA-INHVJJQHSA-N

>  <InChi>  (1) 
InChI=1S/C15H22NO9P/c1-2-24-12-7-9(3-4-11(12)25-8-13(17)18)15(21)26(22,23)6-5-10(16)14(19)20/h3-4,7,10,15,21H,2,5-6,8,16H2,1H3,(H,17,18)(H,19,20)(H,22,23)/t10-,15?/m1/s1

>  <IUPAC Name>  (1) 
(2R)-2-amino-4-[[[4-(carboxymethoxy)-3-ethoxyphenyl]-hydroxymethyl]-hydroxyphosphoryl]butanoic acid

$$$$
