
     RDKit          3D

 51 52  0  0  0  0  0  0  0  0999 V2000
   -4.6884    2.4161    3.0458 C   0  0  0  0  0  0  0  0  0  0  0  0
   -4.4699    2.3740    1.6563 O   0  0  0  0  0  0  0  0  0  0  0  0
   -3.6893    1.4107    1.0516 C   0  0  0  0  0  0  0  0  0  0  0  0
   -3.0465    0.4001    1.7189 C   0  0  0  0  0  0  0  0  0  0  0  0
   -2.2791   -0.5296    1.0338 C   0  0  0  0  0  0  0  0  0  0  0  0
   -2.1118   -0.5061   -0.3321 C   0  0  0  0  0  0  0  0  0  0  0  0
   -2.7755    0.5329   -0.9982 C   0  0  0  0  0  0  0  0  0  0  0  0
   -3.5404    1.4606   -0.3162 C   0  0  0  0  0  0  0  0  0  0  0  0
   -1.3342   -1.4800   -1.1033 C   0  0  0  0  0  0  0  0  0  0  0  0
   -1.7882   -2.8193   -1.1145 N   0  0  0  0  0  0  0  0  0  0  0  0
   -2.1053   -3.4376    0.1325 C   0  0  0  0  0  0  0  0  0  0  0  0
   -2.7149   -3.0983   -2.1668 C   0  0  0  0  0  0  0  0  0  0  0  0
   -1.0265   -1.0039   -2.5042 C   0  0  0  0  0  0  0  0  0  0  0  0
   -0.2527    0.2137   -2.5219 N   0  0  0  0  0  0  0  0  0  0  0  0
    1.0466    0.3298   -1.9413 C   0  0  0  0  0  0  0  0  0  0  0  0
    1.6369   -0.6110   -1.3662 O   0  0  0  0  0  0  0  0  0  0  0  0
    1.7967    1.6351   -1.9942 C   0  0  0  0  0  0  0  0  0  0  0  0
    3.1163    1.4495   -1.3096 C   0  0  0  0  0  0  0  0  0  0  0  0
    2.9031    1.0708    0.0297 O   0  0  0  0  0  0  0  0  0  0  0  0
    4.0652    0.8615    0.7955 C   0  0  0  0  0  0  0  0  0  0  0  0
    5.3154    1.0345    0.2065 C   0  0  0  0  0  0  0  0  0  0  0  0
    6.4606    0.8273    0.9644 C   0  0  0  0  0  0  0  0  0  0  0  0
    6.3374    0.4537    2.2875 C   0  0  0  0  0  0  0  0  0  0  0  0
    5.1149    0.2783    2.8853 C   0  0  0  0  0  0  0  0  0  0  0  0
    3.9798    0.4859    2.1262 C   0  0  0  0  0  0  0  0  0  0  0  0
   -5.6423    2.9430    3.2992 H   0  0  0  0  0  0  0  0  0  0  0  0
   -3.8754    2.9902    3.5328 H   0  0  0  0  0  0  0  0  0  0  0  0
   -4.7230    1.4102    3.5154 H   0  0  0  0  0  0  0  0  0  0  0  0
   -3.1463    0.3373    2.7924 H   0  0  0  0  0  0  0  0  0  0  0  0
   -1.8011   -1.2814    1.6387 H   0  0  0  0  0  0  0  0  0  0  0  0
   -2.7273    0.6540   -2.0694 H   0  0  0  0  0  0  0  0  0  0  0  0
   -4.0464    2.2623   -0.8727 H   0  0  0  0  0  0  0  0  0  0  0  0
   -0.3196   -1.5098   -0.5681 H   0  0  0  0  0  0  0  0  0  0  0  0
   -3.0147   -3.0321    0.6326 H   0  0  0  0  0  0  0  0  0  0  0  0
   -2.3023   -4.5329   -0.1129 H   0  0  0  0  0  0  0  0  0  0  0  0
   -1.2179   -3.4047    0.7985 H   0  0  0  0  0  0  0  0  0  0  0  0
   -2.2086   -3.1411   -3.1585 H   0  0  0  0  0  0  0  0  0  0  0  0
   -3.2808   -4.0214   -2.0492 H   0  0  0  0  0  0  0  0  0  0  0  0
   -3.4388   -2.2387   -2.2597 H   0  0  0  0  0  0  0  0  0  0  0  0
   -0.3970   -1.7818   -3.0300 H   0  0  0  0  0  0  0  0  0  0  0  0
   -1.9199   -0.8954   -3.1145 H   0  0  0  0  0  0  0  0  0  0  0  0
   -0.6027    1.1115   -2.9790 H   0  0  0  0  0  0  0  0  0  0  0  0
    1.9750    1.9249   -3.0517 H   0  0  0  0  0  0  0  0  0  0  0  0
    1.1726    2.4283   -1.5451 H   0  0  0  0  0  0  0  0  0  0  0  0
    3.6662    0.6618   -1.8735 H   0  0  0  0  0  0  0  0  0  0  0  0
    3.6630    2.4226   -1.3958 H   0  0  0  0  0  0  0  0  0  0  0  0
    5.4222    1.3282   -0.8330 H   0  0  0  0  0  0  0  0  0  0  0  0
    7.4535    0.9593    0.5160 H   0  0  0  0  0  0  0  0  0  0  0  0
    7.2606    0.3054    2.8317 H   0  0  0  0  0  0  0  0  0  0  0  0
    5.0932   -0.0108    3.9103 H   0  0  0  0  0  0  0  0  0  0  0  0
    3.0076    0.3625    2.5447 H   0  0  0  0  0  0  0  0  0  0  0  0
  1  2  1  0
  2  3  1  0
  3  4  2  0
  4  5  1  0
  5  6  2  0
  6  7  1  0
  7  8  2  0
  6  9  1  0
  9 10  1  0
 10 11  1  0
 10 12  1  0
  9 13  1  0
 13 14  1  0
 14 15  1  0
 15 16  2  0
 15 17  1  0
 17 18  1  0
 18 19  1  0
 19 20  1  0
 20 21  2  0
 21 22  1  0
 22 23  2  0
 23 24  1  0
 24 25  2  0
  8  3  1  0
 25 20  1  0
  1 26  1  0
  1 27  1  0
  1 28  1  0
  4 29  1  0
  5 30  1  0
  7 31  1  0
  8 32  1  0
  9 33  1  0
 11 34  1  0
 11 35  1  0
 11 36  1  0
 12 37  1  0
 12 38  1  0
 12 39  1  0
 13 40  1  0
 13 41  1  0
 14 42  1  0
 17 43  1  0
 17 44  1  0
 18 45  1  0
 18 46  1  0
 21 47  1  0
 22 48  1  0
 23 49  1  0
 24 50  1  0
 25 51  1  0
M  END
>  <Ligand ID>  (1) 
LIG0004525

>  <Ligand>  (1) 
SMR000151100

>  <SMILES>  (1) 
COc1ccc(cc1)C(N(C)C)CNC(=O)CCOc1ccccc1

>  <CID>  (1) 
4882500.0

>  <ChEMBL ID>  (1) 
nan

>  <InChiKey>  (1) 
WWVXBDDJSLZXHZ-UHFFFAOYSA-N

>  <InChi>  (1) 
InChI=1S/C20H26N2O3/c1-22(2)19(16-9-11-17(24-3)12-10-16)15-21-20(23)13-14-25-18-7-5-4-6-8-18/h4-12,19H,13-15H2,1-3H3,(H,21,23)

>  <IUPAC Name>  (1) 
N-[2-(dimethylamino)-2-(4-methoxyphenyl)ethyl]-3-phenoxypropanamide

$$$$
