
     RDKit          3D

 32 34  0  0  0  0  0  0  0  0999 V2000
    4.3623   -0.2263    0.1240 C   0  0  0  0  0  0  0  0  0  0  0  0
    3.4213    0.3898    1.1144 C   0  0  0  0  0  0  0  0  0  0  0  0
    2.1266   -0.0339    0.6510 N   0  0  0  0  0  0  0  0  0  0  0  0
    2.1783   -0.4505   -0.5683 C   0  0  0  0  0  0  0  0  0  0  0  0
    3.5293   -0.3509   -1.0627 N   0  0  0  0  0  0  0  0  0  0  0  0
    1.0860   -0.9807   -1.4348 C   0  0  0  0  0  0  0  0  0  0  0  0
   -0.2105   -0.9565   -0.7755 N   0  0  0  0  0  0  0  0  0  0  0  0
   -0.7681    0.3183   -0.4615 C   0  0  0  0  0  0  0  0  0  0  0  0
   -0.0993    1.4818   -0.8016 C   0  0  0  0  0  0  0  0  0  0  0  0
   -0.5938    2.7427   -0.5345 C   0  0  0  0  0  0  0  0  0  0  0  0
   -1.8112    2.8440    0.1007 C   0  0  0  0  0  0  0  0  0  0  0  0
   -2.4802    1.6921    0.4406 C   0  0  0  0  0  0  0  0  0  0  0  0
   -1.9854    0.4170    0.1734 C   0  0  0  0  0  0  0  0  0  0  0  0
   -2.7839   -0.7265    0.5822 C   0  0  0  0  0  0  0  0  0  0  0  0
   -3.9856   -0.6271    1.2088 N   0  0  0  0  0  0  0  0  0  0  0  0
   -4.4758   -1.8499    1.4565 C   0  0  0  0  0  0  0  0  0  0  0  0
   -3.5387   -2.7308    0.9629 C   0  0  0  0  0  0  0  0  0  0  0  0
   -2.5870   -2.0117    0.4717 O   0  0  0  0  0  0  0  0  0  0  0  0
    4.6942   -1.2461    0.3967 H   0  0  0  0  0  0  0  0  0  0  0  0
    5.1953    0.4762   -0.1051 H   0  0  0  0  0  0  0  0  0  0  0  0
    3.6012    0.0500    2.1539 H   0  0  0  0  0  0  0  0  0  0  0  0
    3.5301    1.5026    1.1365 H   0  0  0  0  0  0  0  0  0  0  0  0
    3.8226   -0.3676   -2.0740 H   0  0  0  0  0  0  0  0  0  0  0  0
    1.2632   -1.9797   -1.8229 H   0  0  0  0  0  0  0  0  0  0  0  0
    0.9562   -0.3236   -2.3450 H   0  0  0  0  0  0  0  0  0  0  0  0
   -0.6449   -1.8582   -0.5759 H   0  0  0  0  0  0  0  0  0  0  0  0
    0.8700    1.4688   -1.3152 H   0  0  0  0  0  0  0  0  0  0  0  0
   -0.0298    3.6402   -0.8216 H   0  0  0  0  0  0  0  0  0  0  0  0
   -2.1984    3.8370    0.3099 H   0  0  0  0  0  0  0  0  0  0  0  0
   -3.4349    1.8207    0.9389 H   0  0  0  0  0  0  0  0  0  0  0  0
   -5.3961   -2.1442    1.9341 H   0  0  0  0  0  0  0  0  0  0  0  0
   -3.6130   -3.8171    0.9949 H   0  0  0  0  0  0  0  0  0  0  0  0
  1  2  1  0
  2  3  1  0
  3  4  2  0
  4  5  1  0
  4  6  1  0
  6  7  1  0
  7  8  1  0
  8  9  2  0
  9 10  1  0
 10 11  2  0
 11 12  1  0
 12 13  2  0
 13 14  1  0
 14 15  2  0
 15 16  1  0
 16 17  2  0
 17 18  1  0
  5  1  1  0
 13  8  1  0
 18 14  1  0
  1 19  1  0
  1 20  1  0
  2 21  1  0
  2 22  1  0
  5 23  1  0
  6 24  1  0
  6 25  1  0
  7 26  1  0
  9 27  1  0
 10 28  1  0
 11 29  1  0
 12 30  1  0
 16 31  1  0
 17 32  1  0
M  END
>  <Ligand ID>  (1) 
LIG0003184

>  <Ligand>  (1) 
CHEMBL155326

>  <SMILES>  (1) 
C1CN=C(N1)CNc1ccccc1c1ncco1

>  <CID>  (1) 
22493352.0

>  <ChEMBL ID>  (1) 
nan

>  <InChiKey>  (1) 
PBLOKLHEMAJIKI-UHFFFAOYSA-N

>  <InChi>  (1) 
InChI=1S/C13H14N4O/c1-2-4-11(17-9-12-14-5-6-15-12)10(3-1)13-16-7-8-18-13/h1-4,7-8,17H,5-6,9H2,(H,14,15)

>  <IUPAC Name>  (1) 
N-(4,5-dihydro-1H-imidazol-2-ylmethyl)-2-(1,3-oxazol-2-yl)aniline

$$$$
