
     RDKit          3D

 64 68  0  0  0  0  0  0  0  0999 V2000
   -7.5318    3.9648   -0.7245 F   0  0  0  0  0  0  0  0  0  0  0  0
   -7.5990    2.6328   -0.4867 C   0  0  0  0  0  0  0  0  0  0  0  0
   -8.8267    2.0257   -0.6547 C   0  0  0  0  0  0  0  0  0  0  0  0
   -8.8848    0.6681   -0.4097 C   0  0  0  0  0  0  0  0  0  0  0  0
   -7.7739   -0.0464   -0.0170 C   0  0  0  0  0  0  0  0  0  0  0  0
   -6.5302    0.5720    0.1523 C   0  0  0  0  0  0  0  0  0  0  0  0
   -6.4985    1.9231   -0.0974 C   0  0  0  0  0  0  0  0  0  0  0  0
   -5.6278   -0.3193    0.5300 N   0  0  0  0  0  0  0  0  0  0  0  0
   -4.2451   -0.1869    0.8214 C   0  0  0  0  0  0  0  0  0  0  0  0
   -3.5239   -1.3150    0.1207 C   0  0  0  0  0  0  0  0  0  0  0  0
   -2.3425   -0.9331   -0.6922 C   0  0  0  0  0  0  0  0  0  0  0  0
   -1.5300    0.1302   -0.2192 N   0  0  0  0  0  0  0  0  0  0  0  0
   -2.0727    0.7442    0.9729 C   0  0  0  0  0  0  0  0  0  0  0  0
   -3.5483    1.0683    0.6232 C   0  0  0  0  0  0  0  0  0  0  0  0
   -0.1488   -0.1729   -0.0387 C   0  0  0  0  0  0  0  0  0  0  0  0
    0.5576    1.0829    0.4283 C   0  0  0  0  0  0  0  0  0  0  0  0
    1.9496    1.2350   -0.0923 C   0  0  0  0  0  0  0  0  0  0  0  0
    2.6486    0.0230   -0.3695 N   0  0  0  0  0  0  0  0  0  0  0  0
    1.9262   -1.1638   -0.7737 C   0  0  0  0  0  0  0  0  0  0  0  0
    0.5546   -0.6619   -1.2508 C   0  0  0  0  0  0  0  0  0  0  0  0
    4.0866    0.0348   -0.2331 C   0  0  0  0  0  0  0  0  0  0  0  0
    4.6009    1.0978    0.1114 O   0  0  0  0  0  0  0  0  0  0  0  0
    4.8343   -1.1390   -0.4918 N   0  0  0  0  0  0  0  0  0  0  0  0
    6.2339   -1.2645   -0.3989 C   0  0  0  0  0  0  0  0  0  0  0  0
    6.7855   -2.5182   -0.6870 C   0  0  0  0  0  0  0  0  0  0  0  0
    8.1365   -2.7328   -0.6245 C   0  0  0  0  0  0  0  0  0  0  0  0
    9.0193   -1.7375   -0.2781 C   0  0  0  0  0  0  0  0  0  0  0  0
    8.4879   -0.4997    0.0076 C   0  0  0  0  0  0  0  0  0  0  0  0
    7.1172   -0.2870   -0.0574 C   0  0  0  0  0  0  0  0  0  0  0  0
    9.6239    0.7980    0.4574 S   0  0  0  0  0  0  0  0  0  0  0  0
    8.7144    2.3221    0.7827 C   0  0  0  0  0  0  0  0  0  0  0  0
    7.9219    2.2070    1.8860 F   0  0  0  0  0  0  0  0  0  0  0  0
    9.6026    3.3835    0.9140 F   0  0  0  0  0  0  0  0  0  0  0  0
    7.9477    2.6064   -0.3369 F   0  0  0  0  0  0  0  0  0  0  0  0
   -6.2741   -1.5261    0.6109 C   0  0  0  0  0  0  0  0  0  0  0  0
   -5.7815   -2.6386    0.9369 O   0  0  0  0  0  0  0  0  0  0  0  0
   -7.5553   -1.3268    0.2773 N   0  0  0  0  0  0  0  0  0  0  0  0
   -9.6804    2.6138   -0.9637 H   0  0  0  0  0  0  0  0  0  0  0  0
   -9.8408    0.1779   -0.5380 H   0  0  0  0  0  0  0  0  0  0  0  0
   -5.5756    2.4336    0.0204 H   0  0  0  0  0  0  0  0  0  0  0  0
   -4.1448   -0.4263    1.9272 H   0  0  0  0  0  0  0  0  0  0  0  0
   -3.2014   -2.1312    0.8149 H   0  0  0  0  0  0  0  0  0  0  0  0
   -4.2134   -1.8546   -0.5953 H   0  0  0  0  0  0  0  0  0  0  0  0
   -2.7080   -0.6196   -1.7154 H   0  0  0  0  0  0  0  0  0  0  0  0
   -1.7782   -1.8716   -0.9044 H   0  0  0  0  0  0  0  0  0  0  0  0
   -2.0569    0.0276    1.8142 H   0  0  0  0  0  0  0  0  0  0  0  0
   -1.5511    1.6472    1.2752 H   0  0  0  0  0  0  0  0  0  0  0  0
   -3.4568    1.4888   -0.3809 H   0  0  0  0  0  0  0  0  0  0  0  0
   -3.7734    1.8284    1.4298 H   0  0  0  0  0  0  0  0  0  0  0  0
   -0.0830   -0.9428    0.7861 H   0  0  0  0  0  0  0  0  0  0  0  0
    0.5345    1.1257    1.5483 H   0  0  0  0  0  0  0  0  0  0  0  0
   -0.0033    1.9683    0.0034 H   0  0  0  0  0  0  0  0  0  0  0  0
    2.0100    1.9267   -0.9820 H   0  0  0  0  0  0  0  0  0  0  0  0
    2.5107    1.8085    0.7026 H   0  0  0  0  0  0  0  0  0  0  0  0
    1.7940   -1.8035    0.1232 H   0  0  0  0  0  0  0  0  0  0  0  0
    2.4213   -1.7342   -1.5856 H   0  0  0  0  0  0  0  0  0  0  0  0
    0.7342    0.1507   -1.9583 H   0  0  0  0  0  0  0  0  0  0  0  0
    0.0806   -1.5210   -1.7514 H   0  0  0  0  0  0  0  0  0  0  0  0
    4.2707   -1.9799   -0.7771 H   0  0  0  0  0  0  0  0  0  0  0  0
    6.1465   -3.3621   -0.9708 H   0  0  0  0  0  0  0  0  0  0  0  0
    8.5085   -3.7175   -0.8553 H   0  0  0  0  0  0  0  0  0  0  0  0
   10.0866   -1.9130   -0.2308 H   0  0  0  0  0  0  0  0  0  0  0  0
    6.7818    0.6990    0.1777 H   0  0  0  0  0  0  0  0  0  0  0  0
   -8.2666   -2.0688    0.2542 H   0  0  0  0  0  0  0  0  0  0  0  0
  1  2  1  0
  2  3  2  0
  3  4  1  0
  4  5  2  0
  5  6  1  0
  6  7  2  0
  6  8  1  0
  8  9  1  0
  9 10  1  0
 10 11  1  0
 11 12  1  0
 12 13  1  0
 13 14  1  0
 12 15  1  0
 15 16  1  0
 16 17  1  0
 17 18  1  0
 18 19  1  0
 19 20  1  0
 18 21  1  0
 21 22  2  0
 21 23  1  0
 23 24  1  0
 24 25  2  0
 25 26  1  0
 26 27  2  0
 27 28  1  0
 28 29  2  0
 28 30  1  0
 30 31  1  0
 31 32  1  0
 31 33  1  0
 31 34  1  0
  8 35  1  0
 35 36  2  0
 35 37  1  0
  7  2  1  0
 14  9  1  0
 20 15  1  0
 29 24  1  0
 37  5  1  0
  3 38  1  0
  4 39  1  0
  7 40  1  0
  9 41  1  0
 10 42  1  0
 10 43  1  0
 11 44  1  0
 11 45  1  0
 13 46  1  0
 13 47  1  0
 14 48  1  0
 14 49  1  0
 15 50  1  0
 16 51  1  0
 16 52  1  0
 17 53  1  0
 17 54  1  0
 19 55  1  0
 19 56  1  0
 20 57  1  0
 20 58  1  0
 23 59  1  0
 25 60  1  0
 26 61  1  0
 27 62  1  0
 29 63  1  0
 37 64  1  0
M  END
>  <Ligand ID>  (1) 
LIG0000859

>  <Ligand>  (1) 
CHEMBL487985

>  <SMILES>  (1) 
Fc1ccc2c(c1)n(C1CCN(CC1)C1CCN(CC1)C(=O)Nc1cccc(c1)SC(F)(F)F)c(=O)[nH]2

>  <CID>  (1) 
44589645.0

>  <ChEMBL ID>  (1) 
nan

>  <InChiKey>  (1) 
ZCFZBUNCKXEBAK-UHFFFAOYSA-N

>  <InChi>  (1) 
InChI=1S/C25H27F4N5O2S/c26-16-4-5-21-22(14-16)34(24(36)31-21)19-8-10-32(11-9-19)18-6-12-33(13-7-18)23(35)30-17-2-1-3-20(15-17)37-25(27,28)29/h1-5,14-15,18-19H,6-13H2,(H,30,35)(H,31,36)

>  <IUPAC Name>  (1) 
4-[4-(6-fluoro-2-oxo-3H-benzimidazol-1-yl)piperidin-1-yl]-N-[3-(trifluoromethylsulfanyl)phenyl]piperidine-1-carboxamide

$$$$
