
     RDKit          3D

 81 81  0  0  0  0  0  0  0  0999 V2000
   -6.7492    1.5607    3.5288 C   0  0  0  0  0  0  0  0  0  0  0  0
   -7.4768    1.5947    2.1431 C   0  0  0  0  0  0  0  0  0  0  0  0
   -6.7968    2.5673    1.2538 C   0  0  0  0  0  0  0  0  0  0  0  0
   -7.3793    2.7947   -0.0570 C   0  0  0  0  0  0  0  0  0  0  0  0
   -7.5363    1.9097   -1.1770 C   0  0  0  0  0  0  0  0  0  0  0  0
   -8.2651    0.6747   -1.3176 C   0  0  0  0  0  0  0  0  0  0  0  0
   -8.0524   -0.5768   -0.6168 C   0  0  0  0  0  0  0  0  0  0  0  0
   -6.7478   -1.2813   -0.7232 C   0  0  0  0  0  0  0  0  0  0  0  0
   -5.5244   -0.6165   -0.2180 C   0  0  0  0  0  0  0  0  0  0  0  0
   -4.2755   -1.4894   -0.4288 C   0  0  0  0  0  0  0  0  0  0  0  0
   -3.0870   -0.7368    0.1022 C   0  0  0  0  0  0  0  0  0  0  0  0
   -1.8674   -1.3780   -0.0432 O   0  0  0  0  0  0  0  0  0  0  0  0
   -1.2873   -1.6627   -1.2363 C   0  0  0  0  0  0  0  0  0  0  0  0
   -1.7484   -1.3697   -2.4903 C   0  0  0  0  0  0  0  0  0  0  0  0
   -1.0517   -1.7166   -3.6524 C   0  0  0  0  0  0  0  0  0  0  0  0
    0.1496   -2.3786   -3.5813 C   0  0  0  0  0  0  0  0  0  0  0  0
    0.6291   -2.6808   -2.3208 C   0  0  0  0  0  0  0  0  0  0  0  0
   -0.0542   -2.3406   -1.1891 C   0  0  0  0  0  0  0  0  0  0  0  0
    0.5420   -2.6981    0.1241 C   0  0  0  0  0  0  0  0  0  0  0  0
    2.0224   -3.0113   -0.0334 C   0  0  0  0  0  0  0  0  0  0  0  0
    2.7166   -1.8493   -0.5811 C   0  0  0  0  0  0  0  0  0  0  0  0
    2.0500   -0.8132   -0.8382 O   0  0  0  0  0  0  0  0  0  0  0  0
    4.0808   -1.7806   -0.8522 O   0  0  0  0  0  0  0  0  0  0  0  0
    4.5958   -0.5734   -1.3893 C   0  0  0  0  0  0  0  0  0  0  0  0
    6.0805   -0.7678   -1.5898 C   0  0  2  0  0  0  0  0  0  0  0  0
    6.7005   -1.0644   -0.2529 C   0  0  0  0  0  0  0  0  0  0  0  0
    6.4320    0.0430    0.5558 O   0  0  0  0  0  0  0  0  0  0  0  0
    7.2509   -0.0526    2.0059 P   0  0  0  0  0  0  0  0  0  0  0  0
    8.1705   -1.2466    2.1111 O   0  0  0  0  0  0  0  0  0  0  0  0
    8.2376    1.3207    2.1441 O   0  0  0  0  0  0  0  0  0  0  0  0
    9.3980    1.0912    1.4376 C   0  0  0  0  0  0  0  0  0  0  0  0
   10.3082    2.2808    1.5784 C   0  0  1  0  0  0  0  0  0  0  0  0
    9.6320    3.4999    1.0684 C   0  0  0  0  0  0  0  0  0  0  0  0
    9.2828    3.6019   -0.1489 O   0  0  0  0  0  0  0  0  0  0  0  0
    9.3518    4.5831    1.9026 O   0  0  0  0  0  0  0  0  0  0  0  0
   10.5910    2.4353    2.9948 N   0  0  0  0  0  0  0  0  0  0  0  0
    6.1097   -0.0035    3.2611 O   0  0  0  0  0  0  0  0  0  0  0  0
    6.6605    0.3245   -2.2050 F   0  0  0  0  0  0  0  0  0  0  0  0
   -6.4072    2.5775    3.7856 H   0  0  0  0  0  0  0  0  0  0  0  0
   -7.5349    1.1809    4.2250 H   0  0  0  0  0  0  0  0  0  0  0  0
   -5.9310    0.8310    3.4890 H   0  0  0  0  0  0  0  0  0  0  0  0
   -8.5139    1.8926    2.3302 H   0  0  0  0  0  0  0  0  0  0  0  0
   -7.4087    0.5432    1.8404 H   0  0  0  0  0  0  0  0  0  0  0  0
   -5.6794    2.2839    1.1720 H   0  0  0  0  0  0  0  0  0  0  0  0
   -6.6804    3.5748    1.8012 H   0  0  0  0  0  0  0  0  0  0  0  0
   -8.4306    3.3119    0.0997 H   0  0  0  0  0  0  0  0  0  0  0  0
   -6.8560    3.7645   -0.4865 H   0  0  0  0  0  0  0  0  0  0  0  0
   -8.0812    2.6144   -2.0028 H   0  0  0  0  0  0  0  0  0  0  0  0
   -6.5314    1.8803   -1.7436 H   0  0  0  0  0  0  0  0  0  0  0  0
   -9.3937    0.9312   -1.1830 H   0  0  0  0  0  0  0  0  0  0  0  0
   -8.3183    0.3791   -2.4557 H   0  0  0  0  0  0  0  0  0  0  0  0
   -8.4979   -0.6634    0.4116 H   0  0  0  0  0  0  0  0  0  0  0  0
   -8.7791   -1.3383   -1.1689 H   0  0  0  0  0  0  0  0  0  0  0  0
   -6.7976   -2.2872   -0.1833 H   0  0  0  0  0  0  0  0  0  0  0  0
   -6.6443   -1.5923   -1.8007 H   0  0  0  0  0  0  0  0  0  0  0  0
   -5.3216    0.3180   -0.7420 H   0  0  0  0  0  0  0  0  0  0  0  0
   -5.5510   -0.4822    0.8990 H   0  0  0  0  0  0  0  0  0  0  0  0
   -4.2286   -1.8731   -1.4230 H   0  0  0  0  0  0  0  0  0  0  0  0
   -4.3793   -2.4026    0.2464 H   0  0  0  0  0  0  0  0  0  0  0  0
   -3.2915   -0.6327    1.2128 H   0  0  0  0  0  0  0  0  0  0  0  0
   -3.1024    0.2849   -0.3559 H   0  0  0  0  0  0  0  0  0  0  0  0
   -2.6562   -0.8392   -2.6369 H   0  0  0  0  0  0  0  0  0  0  0  0
   -1.4620   -1.4606   -4.6210 H   0  0  0  0  0  0  0  0  0  0  0  0
    0.6833   -2.6433   -4.4816 H   0  0  0  0  0  0  0  0  0  0  0  0
    1.5889   -3.2072   -2.3048 H   0  0  0  0  0  0  0  0  0  0  0  0
    0.4840   -1.8185    0.8042 H   0  0  0  0  0  0  0  0  0  0  0  0
    0.0032   -3.5211    0.6162 H   0  0  0  0  0  0  0  0  0  0  0  0
    2.2097   -3.9588   -0.5292 H   0  0  0  0  0  0  0  0  0  0  0  0
    2.3944   -3.1304    1.0273 H   0  0  0  0  0  0  0  0  0  0  0  0
    4.3682    0.2283   -0.6891 H   0  0  0  0  0  0  0  0  0  0  0  0
    4.0753   -0.4566   -2.3845 H   0  0  0  0  0  0  0  0  0  0  0  0
    6.2737   -1.6486   -2.2355 H   0  0  0  0  0  0  0  0  0  0  0  0
    6.1719   -1.9336    0.1821 H   0  0  0  0  0  0  0  0  0  0  0  0
    7.7674   -1.3052   -0.3118 H   0  0  0  0  0  0  0  0  0  0  0  0
    9.1262    0.8746    0.3933 H   0  0  0  0  0  0  0  0  0  0  0  0
    9.8562    0.1771    1.8707 H   0  0  0  0  0  0  0  0  0  0  0  0
   11.2386    2.0699    1.0042 H   0  0  0  0  0  0  0  0  0  0  0  0
    8.6760    5.3125    1.6432 H   0  0  0  0  0  0  0  0  0  0  0  0
   11.6194    2.6223    3.1273 H   0  0  0  0  0  0  0  0  0  0  0  0
   10.3520    1.6019    3.5431 H   0  0  0  0  0  0  0  0  0  0  0  0
    6.4972   -0.2537    4.1311 H   0  0  0  0  0  0  0  0  0  0  0  0
  1  2  1  0
  2  3  1  0
  3  4  1  0
  4  5  1  0
  5  6  1  0
  6  7  1  0
  7  8  1  0
  8  9  1  0
  9 10  1  0
 10 11  1  0
 11 12  1  0
 12 13  1  0
 13 14  2  0
 14 15  1  0
 15 16  2  0
 16 17  1  0
 17 18  2  0
 18 19  1  0
 19 20  1  0
 20 21  1  0
 21 22  2  0
 21 23  1  0
 23 24  1  0
 24 25  1  0
 25 26  1  0
 26 27  1  0
 27 28  1  0
 28 29  2  0
 28 30  1  0
 30 31  1  0
 31 32  1  0
 32 33  1  0
 33 34  2  0
 33 35  1  0
 32 36  1  0
 28 37  1  0
 25 38  1  0
 18 13  1  0
  1 39  1  0
  1 40  1  0
  1 41  1  0
  2 42  1  0
  2 43  1  0
  3 44  1  0
  3 45  1  0
  4 46  1  0
  4 47  1  0
  5 48  1  0
  5 49  1  0
  6 50  1  0
  6 51  1  0
  7 52  1  0
  7 53  1  0
  8 54  1  0
  8 55  1  0
  9 56  1  0
  9 57  1  0
 10 58  1  0
 10 59  1  0
 11 60  1  0
 11 61  1  0
 14 62  1  0
 15 63  1  0
 16 64  1  0
 17 65  1  0
 19 66  1  0
 19 67  1  0
 20 68  1  0
 20 69  1  0
 24 70  1  0
 24 71  1  0
 25 72  1  6
 26 73  1  0
 26 74  1  0
 31 75  1  0
 31 76  1  0
 32 77  1  6
 35 78  1  0
 36 79  1  0
 36 80  1  0
 37 81  1  0
M  END
>  <Ligand ID>  (1) 
LIG0004282

>  <Ligand>  (1) 
CHEMBL3577182

>  <SMILES>  (1) 
CCCCCCCCCCCOc1ccccc1CCC(=O)OC[C@H](COP(=O)(OC[C@@H](C(=O)O)N)O)F

>  <CID>  (1) 
122177528.0

>  <ChEMBL ID>  (1) 
nan

>  <InChiKey>  (1) 
RJDYAPVWZJLYAA-PKTZIBPZSA-N

>  <InChi>  (1) 
InChI=1S/C26H43FNO9P/c1-2-3-4-5-6-7-8-9-12-17-34-24-14-11-10-13-21(24)15-16-25(29)35-18-22(27)19-36-38(32,33)37-20-23(28)26(30)31/h10-11,13-14,22-23H,2-9,12,15-20,28H2,1H3,(H,30,31)(H,32,33)/t22-,23+/m1/s1

>  <IUPAC Name>  (1) 
(2S)-2-amino-3-[[(2R)-2-fluoro-3-[3-(2-undecoxyphenyl)propanoyloxy]propoxy]-hydroxyphosphoryl]oxypropanoic acid

$$$$
