
     RDKit          3D

 69 71  0  0  0  0  0  0  0  0999 V2000
   10.9253    3.7475   -0.1362 O   0  0  0  0  0  0  0  0  0  0  0  0
   10.1421    2.7635   -0.1131 C   0  0  0  0  0  0  0  0  0  0  0  0
    9.1505    2.6626    0.8475 C   0  0  0  0  0  0  0  0  0  0  0  0
    8.2741    1.5749    0.8843 C   0  0  0  0  0  0  0  0  0  0  0  0
    8.4579    0.6423   -0.0676 N   0  0  0  0  0  0  0  0  0  0  0  0
    9.4182    0.7275   -1.0080 C   0  0  0  0  0  0  0  0  0  0  0  0
    9.5319   -0.1949   -1.8779 O   0  0  0  0  0  0  0  0  0  0  0  0
   10.2671    1.7836   -1.0416 N   0  0  0  0  0  0  0  0  0  0  0  0
    7.5905   -0.4940   -0.0798 C   0  0  2  0  0  0  0  0  0  0  0  0
    6.2551   -0.0329   -0.1325 O   0  0  0  0  0  0  0  0  0  0  0  0
    5.5896   -1.2492    0.0901 C   0  0  1  0  0  0  0  0  0  0  0  0
    6.1768   -1.6703    1.3967 C   0  0  2  0  0  0  0  0  0  0  0  0
    7.6583   -1.3412    1.1721 C   0  0  1  0  0  0  0  0  0  0  0  0
    8.2991   -2.5258    0.8077 O   0  0  0  0  0  0  0  0  0  0  0  0
    5.9939   -3.0382    1.5866 O   0  0  0  0  0  0  0  0  0  0  0  0
    4.0972   -1.0129    0.1263 C   0  0  0  0  0  0  0  0  0  0  0  0
    3.7671   -0.4746   -1.1277 O   0  0  0  0  0  0  0  0  0  0  0  0
    2.1019   -0.1923   -1.1350 P   0  0  0  0  0  0  0  0  0  0  0  0
    1.8036    1.0373   -1.9973 O   0  0  0  0  0  0  0  0  0  0  0  0
    1.6011    0.0601    0.4530 O   0  0  0  0  0  0  0  0  0  0  0  0
   -0.0717    0.2890    0.4432 P   0  0  0  0  0  0  0  0  0  0  0  0
   -0.5134    1.2667   -0.6182 O   0  0  0  0  0  0  0  0  0  0  0  0
   -0.6595    0.8110    1.9400 O   0  0  0  0  0  0  0  0  0  0  0  0
   -2.3333    1.0802    1.7146 P   0  0  0  0  0  0  0  0  0  0  0  0
   -3.0526    0.9596    3.0292 O   0  0  0  0  0  0  0  0  0  0  0  0
   -2.8710   -0.0404    0.5982 O   0  0  0  0  0  0  0  0  0  0  0  0
   -4.0788    0.5280   -0.4209 P   0  0  0  0  0  0  0  0  0  0  0  0
   -4.4300    1.9336   -0.0025 O   0  0  0  0  0  0  0  0  0  0  0  0
   -5.3888   -0.5120   -0.4561 O   0  0  0  0  0  0  0  0  0  0  0  0
   -6.5986    0.2111   -0.3601 C   0  0  1  0  0  0  0  0  0  0  0  0
   -7.2854   -0.0370   -1.5149 O   0  0  0  0  0  0  0  0  0  0  0  0
   -8.5787   -0.4637   -1.3908 C   0  0  2  0  0  0  0  0  0  0  0  0
   -9.2099   -0.2916   -2.7475 C   0  0  0  0  0  0  0  0  0  0  0  0
   -8.5156    0.1778   -3.7094 O   0  0  0  0  0  0  0  0  0  0  0  0
  -10.5538   -0.6448   -2.9549 O   0  0  0  0  0  0  0  0  0  0  0  0
   -9.3116    0.4022   -0.3643 C   0  0  2  0  0  0  0  0  0  0  0  0
   -8.7339    0.0118    0.9718 C   0  0  1  0  0  0  0  0  0  0  0  0
   -7.2579   -0.1986    0.9103 C   0  0  1  0  0  0  0  0  0  0  0  0
   -6.8783   -1.5041    1.2205 O   0  0  0  0  0  0  0  0  0  0  0  0
   -9.1243    0.9524    1.9198 O   0  0  0  0  0  0  0  0  0  0  0  0
  -10.6613    0.1444   -0.4467 O   0  0  0  0  0  0  0  0  0  0  0  0
   -3.3656    0.6505   -1.9713 O   0  0  0  0  0  0  0  0  0  0  0  0
   -2.4946    2.6748    1.1659 O   0  0  0  0  0  0  0  0  0  0  0  0
   -0.8046   -1.2193    0.1251 O   0  0  0  0  0  0  0  0  0  0  0  0
    1.2226   -1.4646   -1.8027 O   0  0  0  0  0  0  0  0  0  0  0  0
    9.0725    3.4500    1.5700 H   0  0  0  0  0  0  0  0  0  0  0  0
    7.5160    1.5285    1.6438 H   0  0  0  0  0  0  0  0  0  0  0  0
   11.0267    1.8565   -1.7810 H   0  0  0  0  0  0  0  0  0  0  0  0
    7.7090   -1.1153   -0.9985 H   0  0  0  0  0  0  0  0  0  0  0  0
    5.9102   -1.9425   -0.6892 H   0  0  0  0  0  0  0  0  0  0  0  0
    5.7615   -1.1227    2.2700 H   0  0  0  0  0  0  0  0  0  0  0  0
    8.1189   -0.8484    2.0316 H   0  0  0  0  0  0  0  0  0  0  0  0
    8.3620   -3.1902    1.5124 H   0  0  0  0  0  0  0  0  0  0  0  0
    5.3847   -3.2685    2.3145 H   0  0  0  0  0  0  0  0  0  0  0  0
    3.9085   -0.2691    0.9196 H   0  0  0  0  0  0  0  0  0  0  0  0
    3.5671   -1.9388    0.3488 H   0  0  0  0  0  0  0  0  0  0  0  0
   -6.3107    1.2771   -0.2883 H   0  0  0  0  0  0  0  0  0  0  0  0
   -8.7177   -1.5057   -1.0796 H   0  0  0  0  0  0  0  0  0  0  0  0
  -10.8687   -0.6818   -3.9353 H   0  0  0  0  0  0  0  0  0  0  0  0
   -9.0549    1.4501   -0.5984 H   0  0  0  0  0  0  0  0  0  0  0  0
   -9.1870   -0.9913    1.2220 H   0  0  0  0  0  0  0  0  0  0  0  0
   -6.8165    0.4271    1.7391 H   0  0  0  0  0  0  0  0  0  0  0  0
   -5.8852   -1.4752    1.3621 H   0  0  0  0  0  0  0  0  0  0  0  0
   -9.9038    0.6112    2.4478 H   0  0  0  0  0  0  0  0  0  0  0  0
  -11.0928    0.9184   -0.9151 H   0  0  0  0  0  0  0  0  0  0  0  0
   -3.3894   -0.2623   -2.3642 H   0  0  0  0  0  0  0  0  0  0  0  0
   -2.0395    2.8130    0.2975 H   0  0  0  0  0  0  0  0  0  0  0  0
   -0.3496   -1.9275    0.6320 H   0  0  0  0  0  0  0  0  0  0  0  0
    1.7283   -2.2831   -1.9442 H   0  0  0  0  0  0  0  0  0  0  0  0
  1  2  2  0
  2  3  1  0
  3  4  2  0
  4  5  1  0
  5  6  1  0
  6  7  2  0
  6  8  1  0
  5  9  1  0
  9 10  1  0
 10 11  1  0
 11 12  1  0
 12 13  1  0
 13 14  1  0
 12 15  1  0
 11 16  1  0
 16 17  1  0
 17 18  1  0
 18 19  2  0
 18 20  1  0
 20 21  1  0
 21 22  2  0
 21 23  1  0
 23 24  1  0
 24 25  2  0
 24 26  1  0
 26 27  1  0
 27 28  2  0
 27 29  1  0
 29 30  1  0
 30 31  1  0
 31 32  1  0
 32 33  1  0
 33 34  2  0
 33 35  1  0
 32 36  1  0
 36 37  1  0
 37 38  1  0
 38 39  1  0
 37 40  1  0
 36 41  1  0
 27 42  1  0
 24 43  1  0
 21 44  1  0
 18 45  1  0
  8  2  1  0
 13  9  1  0
 38 30  1  0
  3 46  1  0
  4 47  1  0
  8 48  1  0
  9 49  1  6
 11 50  1  6
 12 51  1  1
 13 52  1  1
 14 53  1  0
 15 54  1  0
 16 55  1  0
 16 56  1  0
 30 57  1  1
 32 58  1  1
 35 59  1  0
 36 60  1  6
 37 61  1  1
 38 62  1  1
 39 63  1  0
 40 64  1  0
 41 65  1  0
 42 66  1  0
 43 67  1  0
 44 68  1  0
 45 69  1  0
M  END
>  <Ligand ID>  (1) 
LIG0002821

>  <Ligand>  (1) 
CHEMBL1784902

>  <SMILES>  (1) 
O=c1ccn(c(=O)[nH]1)[C@@H]1O[C@@H]([C@H]([C@H]1O)O)COP(=O)(OP(=O)(OP(=O)(OP(=O)(O[C@H]1O[C@H](C(=O)O)[C@H]([C@@H]([C@H]1O)O)O)O)O)O)O

>  <CID>  (1) 
53309381.0

>  <ChEMBL ID>  (1) 
nan

>  <InChiKey>  (1) 
NLYVASMWOWKGJP-LXQIFKJMSA-N

>  <InChi>  (1) 
InChI=1S/C15H24N2O24P4/c18-5-1-2-17(15(26)16-5)12-9(22)6(19)4(36-12)3-35-42(27,28)39-44(31,32)41-45(33,34)40-43(29,30)38-14-10(23)7(20)8(21)11(37-14)13(24)25/h1-2,4,6-12,14,19-23H,3H2,(H,24,25)(H,27,28)(H,29,30)(H,31,32)(H,33,34)(H,16,18,26)/t4-,6-,7+,8+,9-,10-,11+,12-,14-/m1/s1

>  <IUPAC Name>  (1) 
(2S,3S,4S,5R,6R)-6-[[[[[(2R,3S,4R,5R)-5-(2,4-dioxopyrimidin-1-yl)-3,4-dihydroxyoxolan-2-yl]methoxy-hydroxyphosphoryl]oxy-hydroxyphosphoryl]oxy-hydroxyphosphoryl]oxy-hydroxyphosphoryl]oxy-3,4,5-trihydroxyoxane-2-carboxylic acid

$$$$
