
     RDKit          3D

 76 82  0  0  0  0  0  0  0  0999 V2000
   -4.3694   -3.8947   -1.6657 O   0  0  0  0  0  0  0  0  0  0  0  0
   -3.3018   -4.6549   -2.0873 C   0  0  0  0  0  0  0  0  0  0  0  0
   -3.5043   -5.3939   -3.1077 O   0  0  0  0  0  0  0  0  0  0  0  0
   -1.9692   -4.6760   -1.4569 C   0  0  0  0  0  0  0  0  0  0  0  0
   -1.8776   -3.7927   -0.3373 N   0  0  0  0  0  0  0  0  0  0  0  0
   -1.9342   -2.3829   -0.6523 C   0  0  2  0  0  0  0  0  0  0  0  0
   -0.7804   -2.0183   -1.5460 C   0  0  0  0  0  0  0  0  0  0  0  0
   -0.7199   -0.5334   -1.6908 C   0  0  0  0  0  0  0  0  0  0  0  0
   -0.3628    0.0933   -0.3738 C   0  0  2  0  0  0  0  0  0  0  0  0
   -1.5720   -0.2006    0.5311 C   0  0  2  0  0  0  0  0  0  0  0  0
   -1.9366   -1.6435    0.6461 C   0  0  1  0  0  0  0  0  0  0  0  0
   -3.3295   -1.4927    1.0327 O   0  0  0  0  0  0  0  0  0  0  0  0
   -3.8365   -0.4046    0.3115 C   0  0  0  0  0  0  0  0  0  0  0  0
   -2.7697    0.3900   -0.0275 C   0  0  0  0  0  0  0  0  0  0  0  0
   -2.8046    1.5383   -0.7309 C   0  0  0  0  0  0  0  0  0  0  0  0
   -1.5517    2.2305   -1.0383 C   0  0  0  0  0  0  0  0  0  0  0  0
   -0.3378    1.6073   -0.4148 C   0  0  1  0  0  0  0  0  0  0  0  0
    0.0434    2.1480    0.8528 N   0  0  0  0  0  0  0  0  0  0  0  0
   -0.1595    1.3228    1.9738 C   0  0  0  0  0  0  0  0  0  0  0  0
   -1.2831    0.3500    1.8804 C   0  0  0  0  0  0  0  0  0  0  0  0
    0.1056    3.5353    1.0121 C   0  0  0  0  0  0  0  0  0  0  0  0
    1.2430    4.0953    0.1824 C   0  0  0  0  0  0  0  0  0  0  0  0
    1.5041    5.5521    0.1952 C   0  0  0  0  0  0  0  0  0  0  0  0
    0.8301    4.9322   -0.9756 C   0  0  0  0  0  0  0  0  0  0  0  0
   -4.0585    1.9722   -1.1597 C   0  0  0  0  0  0  0  0  0  0  0  0
   -5.1923    1.2096   -0.8464 C   0  0  0  0  0  0  0  0  0  0  0  0
   -5.0769    0.0217   -0.1109 C   0  0  0  0  0  0  0  0  0  0  0  0
   -6.1809   -0.7457    0.2083 O   0  0  0  0  0  0  0  0  0  0  0  0
    0.6773   -0.4400    0.2609 O   0  0  0  0  0  0  0  0  0  0  0  0
    1.9241   -0.6243   -0.0616 C   0  0  0  0  0  0  0  0  0  0  0  0
    2.8547    0.5057   -0.3952 C   0  0  0  0  0  0  0  0  0  0  0  0
    4.2724   -0.0576   -0.6903 C   0  0  0  0  0  0  0  0  0  0  0  0
    4.8279   -0.7821    0.4539 C   0  0  0  0  0  0  0  0  0  0  0  0
    5.5814   -0.1502    1.4464 C   0  0  0  0  0  0  0  0  0  0  0  0
    6.1043   -0.8452    2.5201 C   0  0  0  0  0  0  0  0  0  0  0  0
    5.9023   -2.2070    2.6586 C   0  0  0  0  0  0  0  0  0  0  0  0
    5.1608   -2.8483    1.6885 C   0  0  0  0  0  0  0  0  0  0  0  0
    4.6379   -2.1594    0.6170 C   0  0  0  0  0  0  0  0  0  0  0  0
   -5.3228   -4.1490   -1.8848 H   0  0  0  0  0  0  0  0  0  0  0  0
   -1.7771   -5.7083   -1.0664 H   0  0  0  0  0  0  0  0  0  0  0  0
   -1.1678   -4.4377   -2.1952 H   0  0  0  0  0  0  0  0  0  0  0  0
   -2.4843   -4.0769    0.4496 H   0  0  0  0  0  0  0  0  0  0  0  0
   -2.8544   -2.1929   -1.2493 H   0  0  0  0  0  0  0  0  0  0  0  0
   -1.0512   -2.4630   -2.5570 H   0  0  0  0  0  0  0  0  0  0  0  0
    0.1009   -2.5112   -1.1412 H   0  0  0  0  0  0  0  0  0  0  0  0
   -0.0685   -0.1949   -2.5223 H   0  0  0  0  0  0  0  0  0  0  0  0
   -1.7366   -0.2162   -1.9894 H   0  0  0  0  0  0  0  0  0  0  0  0
   -1.4501   -2.1746    1.4676 H   0  0  0  0  0  0  0  0  0  0  0  0
   -1.4283    2.2032   -2.1627 H   0  0  0  0  0  0  0  0  0  0  0  0
   -1.5777    3.3119   -0.7902 H   0  0  0  0  0  0  0  0  0  0  0  0
    0.5027    1.9322   -1.1126 H   0  0  0  0  0  0  0  0  0  0  0  0
    0.7675    0.7821    2.3266 H   0  0  0  0  0  0  0  0  0  0  0  0
   -0.3992    1.9998    2.8468 H   0  0  0  0  0  0  0  0  0  0  0  0
   -1.0839   -0.5163    2.5808 H   0  0  0  0  0  0  0  0  0  0  0  0
   -2.2303    0.7903    2.3041 H   0  0  0  0  0  0  0  0  0  0  0  0
   -0.7839    4.1412    0.8519 H   0  0  0  0  0  0  0  0  0  0  0  0
    0.3763    3.7276    2.1003 H   0  0  0  0  0  0  0  0  0  0  0  0
    2.1329    3.4398    0.0429 H   0  0  0  0  0  0  0  0  0  0  0  0
    2.5552    5.8889   -0.0286 H   0  0  0  0  0  0  0  0  0  0  0  0
    0.9430    6.2538    0.8347 H   0  0  0  0  0  0  0  0  0  0  0  0
    1.3932    4.7855   -1.9399 H   0  0  0  0  0  0  0  0  0  0  0  0
   -0.2200    5.2457   -1.1388 H   0  0  0  0  0  0  0  0  0  0  0  0
   -4.1263    2.8905   -1.7260 H   0  0  0  0  0  0  0  0  0  0  0  0
   -6.1727    1.5314   -1.1704 H   0  0  0  0  0  0  0  0  0  0  0  0
   -6.5456   -0.8465    1.1455 H   0  0  0  0  0  0  0  0  0  0  0  0
    2.4316   -1.1280    0.8476 H   0  0  0  0  0  0  0  0  0  0  0  0
    2.1418   -1.4014   -0.8520 H   0  0  0  0  0  0  0  0  0  0  0  0
    3.0044    1.2430    0.4126 H   0  0  0  0  0  0  0  0  0  0  0  0
    2.5531    1.0832   -1.3083 H   0  0  0  0  0  0  0  0  0  0  0  0
    4.1395   -0.7262   -1.5686 H   0  0  0  0  0  0  0  0  0  0  0  0
    4.9232    0.7625   -1.0529 H   0  0  0  0  0  0  0  0  0  0  0  0
    5.7547    0.9331    1.3563 H   0  0  0  0  0  0  0  0  0  0  0  0
    6.6866   -0.3226    3.2756 H   0  0  0  0  0  0  0  0  0  0  0  0
    6.2878   -2.7909    3.4741 H   0  0  0  0  0  0  0  0  0  0  0  0
    4.9714   -3.9207    1.7495 H   0  0  0  0  0  0  0  0  0  0  0  0
    4.0550   -2.7248   -0.1247 H   0  0  0  0  0  0  0  0  0  0  0  0
  1  2  1  0
  2  3  2  0
  2  4  1  0
  4  5  1  0
  5  6  1  0
  6  7  1  0
  7  8  1  0
  8  9  1  0
  9 10  1  0
 10 11  1  0
 11 12  1  0
 12 13  1  0
 13 14  2  0
 14 15  1  0
 15 16  1  0
 16 17  1  0
 17 18  1  0
 18 19  1  0
 19 20  1  0
 18 21  1  0
 21 22  1  0
 22 23  1  0
 23 24  1  0
 15 25  2  0
 25 26  1  0
 26 27  2  0
 27 28  1  0
  9 29  1  1
 29 30  1  0
 30 31  1  0
 31 32  1  0
 32 33  1  0
 33 34  2  0
 34 35  1  0
 35 36  2  0
 36 37  1  0
 37 38  2  0
 11  6  1  0
 27 13  1  0
 38 33  1  0
 17  9  1  0
 24 22  1  0
 10 20  1  1
 14 10  1  0
  1 39  1  0
  4 40  1  0
  4 41  1  0
  5 42  1  0
  6 43  1  6
  7 44  1  0
  7 45  1  0
  8 46  1  0
  8 47  1  0
 11 48  1  1
 16 49  1  0
 16 50  1  0
 17 51  1  6
 19 52  1  0
 19 53  1  0
 20 54  1  0
 20 55  1  0
 21 56  1  0
 21 57  1  0
 22 58  1  0
 23 59  1  0
 23 60  1  0
 24 61  1  0
 24 62  1  0
 25 63  1  0
 26 64  1  0
 28 65  1  0
 30 66  1  0
 30 67  1  0
 31 68  1  0
 31 69  1  0
 32 70  1  0
 32 71  1  0
 34 72  1  0
 35 73  1  0
 36 74  1  0
 37 75  1  0
 38 76  1  0
M  END
>  <Ligand ID>  (1) 
LIG0002883

>  <Ligand>  (1) 
CHEMBL1739442

>  <SMILES>  (1) 
OC(=O)CN[C@@H]1CC[C@@]2([C@@]34[C@H]1Oc1c4c(C[C@H]2N(CC3)CC2CC2)ccc1O)OCCCc1ccccc1

>  <CID>  (1) 
51003217.0

>  <ChEMBL ID>  (1) 
nan

>  <InChiKey>  (1) 
ZJWDRJAMCPEBDA-CICGIWRTSA-N

>  <InChi>  (1) 
InChI=1S/C31H38N2O5/c34-24-11-10-22-17-25-31(37-16-4-7-20-5-2-1-3-6-20)13-12-23(32-18-26(35)36)29-30(31,27(22)28(24)38-29)14-15-33(25)19-21-8-9-21/h1-3,5-6,10-11,21,23,25,29,32,34H,4,7-9,12-19H2,(H,35,36)/t23-,25-,29+,30+,31-/m1/s1

>  <IUPAC Name>  (1) 
2-[[(4R,4aS,7R,7aR,12bS)-3-(cyclopropylmethyl)-9-hydroxy-4a-(3-phenylpropoxy)-1,2,4,5,6,7,7a,13-octahydro-4,12-methanobenzofuro[3,2-e]isoquinolin-7-yl]amino]acetic acid

$$$$
