
     RDKit          3D

 37 39  0  0  0  0  0  0  0  0999 V2000
    4.8552    1.3920   -0.8944 C   0  0  0  0  0  0  0  0  0  0  0  0
    4.3503    0.4811   -0.0434 C   0  0  0  0  0  0  0  0  0  0  0  0
    3.2641    0.8897    0.9010 C   0  0  0  0  0  0  0  0  0  0  0  0
    2.1003    0.0509    0.6104 N   0  0  0  0  0  0  0  0  0  0  0  0
    1.2330    0.4850   -0.2816 N   0  0  0  0  0  0  0  0  0  0  0  0
    0.1214   -0.1965   -0.6345 C   0  0  0  0  0  0  0  0  0  0  0  0
   -0.7672    0.4321   -1.6173 C   0  0  0  0  0  0  0  0  0  0  0  0
   -1.9372    1.1343   -1.0491 C   0  0  0  0  0  0  0  0  0  0  0  0
   -3.2326    0.7049   -1.0805 C   0  0  0  0  0  0  0  0  0  0  0  0
   -4.2631    1.4440   -0.4980 C   0  0  0  0  0  0  0  0  0  0  0  0
   -3.9833    2.6485    0.1333 C   0  0  0  0  0  0  0  0  0  0  0  0
   -2.6780    3.1001    0.1753 C   0  0  0  0  0  0  0  0  0  0  0  0
   -1.6855    2.3441   -0.4104 C   0  0  0  0  0  0  0  0  0  0  0  0
   -5.2804    3.5958    0.8763 Cl  0  0  0  0  0  0  0  0  0  0  0  0
   -0.0827   -1.4012   -0.0116 C   0  0  0  0  0  0  0  0  0  0  0  0
    0.8238   -1.8577    0.9226 C   0  0  0  0  0  0  0  0  0  0  0  0
    1.9493   -1.1374    1.2617 C   0  0  0  0  0  0  0  0  0  0  0  0
    2.7730   -1.5469    2.1078 O   0  0  0  0  0  0  0  0  0  0  0  0
    0.6489   -3.0712    1.5599 C   0  0  0  0  0  0  0  0  0  0  0  0
   -0.4601   -3.8274    1.2419 C   0  0  0  0  0  0  0  0  0  0  0  0
   -1.3819   -3.3740    0.2976 C   0  0  0  0  0  0  0  0  0  0  0  0
   -1.1825   -2.1605   -0.3221 C   0  0  0  0  0  0  0  0  0  0  0  0
    5.6553    1.1250   -1.6029 H   0  0  0  0  0  0  0  0  0  0  0  0
    4.4774    2.4085   -0.8936 H   0  0  0  0  0  0  0  0  0  0  0  0
    4.7400   -0.5203   -0.0630 H   0  0  0  0  0  0  0  0  0  0  0  0
    3.0430    1.9591    0.7727 H   0  0  0  0  0  0  0  0  0  0  0  0
    3.5941    0.6307    1.9207 H   0  0  0  0  0  0  0  0  0  0  0  0
   -1.1887   -0.3724   -2.2916 H   0  0  0  0  0  0  0  0  0  0  0  0
   -0.2027    1.0874   -2.3277 H   0  0  0  0  0  0  0  0  0  0  0  0
   -3.4912   -0.2194   -1.5692 H   0  0  0  0  0  0  0  0  0  0  0  0
   -5.2957    1.0671   -0.5430 H   0  0  0  0  0  0  0  0  0  0  0  0
   -2.4434    4.0346    0.6621 H   0  0  0  0  0  0  0  0  0  0  0  0
   -0.6639    2.7342   -0.3564 H   0  0  0  0  0  0  0  0  0  0  0  0
    1.3463   -3.4516    2.2972 H   0  0  0  0  0  0  0  0  0  0  0  0
   -0.6467   -4.7879    1.7111 H   0  0  0  0  0  0  0  0  0  0  0  0
   -2.2397   -4.0177    0.0883 H   0  0  0  0  0  0  0  0  0  0  0  0
   -1.8691   -1.8071   -1.0497 H   0  0  0  0  0  0  0  0  0  0  0  0
  1  2  2  0
  2  3  1  0
  3  4  1  0
  4  5  1  0
  5  6  2  0
  6  7  1  0
  7  8  1  0
  8  9  2  0
  9 10  1  0
 10 11  2  0
 11 12  1  0
 12 13  2  0
 11 14  1  0
  6 15  1  0
 15 16  2  0
 16 17  1  0
 17 18  2  0
 16 19  1  0
 19 20  2  0
 20 21  1  0
 21 22  2  0
 17  4  1  0
 13  8  1  0
 22 15  1  0
  1 23  1  0
  1 24  1  0
  2 25  1  0
  3 26  1  0
  3 27  1  0
  7 28  1  0
  7 29  1  0
  9 30  1  0
 10 31  1  0
 12 32  1  0
 13 33  1  0
 19 34  1  0
 20 35  1  0
 21 36  1  0
 22 37  1  0
M  END
>  <Ligand ID>  (1) 
LIG0005625

>  <Ligand>  (1) 
CHEMBL207277

>  <SMILES>  (1) 
C=CCn1nc(Cc2ccc(cc2)Cl)c2c(c1=O)cccc2

>  <CID>  (1) 
15959119.0

>  <ChEMBL ID>  (1) 
nan

>  <InChiKey>  (1) 
OHEWOPKEAKDVRX-UHFFFAOYSA-N

>  <InChi>  (1) 
InChI=1S/C18H15ClN2O/c1-2-11-21-18(22)16-6-4-3-5-15(16)17(20-21)12-13-7-9-14(19)10-8-13/h2-10H,1,11-12H2

>  <IUPAC Name>  (1) 
4-[(4-chlorophenyl)methyl]-2-prop-2-enylphthalazin-1-one

$$$$
