
     RDKit          3D

 67 71  0  0  0  0  0  0  0  0999 V2000
   -2.8036    0.8013    1.2520 O   0  0  0  0  0  0  0  0  0  0  0  0
   -2.6922    1.5772    0.1495 C   0  0  0  0  0  0  0  0  0  0  0  0
   -1.9835    0.9707   -1.0200 C   0  0  0  0  0  0  0  0  0  0  0  0
   -0.6510    0.6556   -0.7685 N   0  0  0  0  0  0  0  0  0  0  0  0
   -0.2828   -0.3772    0.1095 C   0  0  0  0  0  0  0  0  0  0  0  0
    1.1684   -0.2364    0.6056 C   0  0  0  0  0  0  0  0  0  0  0  0
    1.6130    1.1237    0.1749 C   0  0  0  0  0  0  0  0  0  0  0  0
    1.6348    1.1702   -1.3134 C   0  0  0  0  0  0  0  0  0  0  0  0
    0.2606    0.9055   -1.8464 C   0  0  0  0  0  0  0  0  0  0  0  0
    2.8370    1.6506    0.8364 C   0  0  0  0  0  0  0  0  0  0  0  0
    4.0351    0.8992    0.6871 N   0  0  0  0  0  0  0  0  0  0  0  0
    4.4612   -0.1346    1.5878 C   0  0  0  0  0  0  0  0  0  0  0  0
    3.7659   -0.4278    2.5802 O   0  0  0  0  0  0  0  0  0  0  0  0
    5.7008   -0.8761    1.3930 C   0  0  0  0  0  0  0  0  0  0  0  0
    6.0579   -1.8663    2.3034 C   0  0  0  0  0  0  0  0  0  0  0  0
    7.2259   -2.5808    2.1431 C   0  0  0  0  0  0  0  0  0  0  0  0
    8.0503   -2.3076    1.0635 C   0  0  0  0  0  0  0  0  0  0  0  0
    7.7034   -1.3147    0.1401 C   0  0  0  0  0  0  0  0  0  0  0  0
    6.5301   -0.6124    0.3206 C   0  0  0  0  0  0  0  0  0  0  0  0
    6.1688    0.3712   -0.5758 C   0  0  0  0  0  0  0  0  0  0  0  0
    4.9350    1.1374   -0.4182 C   0  0  0  0  0  0  0  0  0  0  0  0
    4.7001    2.0116   -1.2910 O   0  0  0  0  0  0  0  0  0  0  0  0
    7.0262    0.6155   -1.6487 C   0  0  0  0  0  0  0  0  0  0  0  0
    8.1911   -0.0889   -1.8203 C   0  0  0  0  0  0  0  0  0  0  0  0
    8.5518   -1.0704   -0.9250 C   0  0  0  0  0  0  0  0  0  0  0  0
   -3.9444    2.2743   -0.3277 C   0  0  0  0  0  0  0  0  0  0  0  0
   -4.9727    1.4835   -0.6786 O   0  0  0  0  0  0  0  0  0  0  0  0
   -5.8449    0.5963   -0.2242 C   0  0  0  0  0  0  0  0  0  0  0  0
   -6.0052    0.1210    1.0617 C   0  0  0  0  0  0  0  0  0  0  0  0
   -6.9496   -0.8113    1.4263 C   0  0  0  0  0  0  0  0  0  0  0  0
   -7.1074   -1.3180    2.8151 C   0  0  0  0  0  0  0  0  0  0  0  0
   -7.7968   -1.3130    0.4683 C   0  0  0  0  0  0  0  0  0  0  0  0
   -7.6879   -0.8793   -0.8285 C   0  0  0  0  0  0  0  0  0  0  0  0
   -6.7411    0.0460   -1.1617 C   0  0  0  0  0  0  0  0  0  0  0  0
   -8.6071   -1.4186   -1.8893 C   0  0  0  0  0  0  0  0  0  0  0  0
   -3.1792   -0.0953    1.1379 H   0  0  0  0  0  0  0  0  0  0  0  0
   -2.0070    2.4487    0.4651 H   0  0  0  0  0  0  0  0  0  0  0  0
   -2.0670    1.7202   -1.8637 H   0  0  0  0  0  0  0  0  0  0  0  0
   -2.5037    0.0641   -1.4133 H   0  0  0  0  0  0  0  0  0  0  0  0
   -0.8853   -0.3661    1.0231 H   0  0  0  0  0  0  0  0  0  0  0  0
   -0.4059   -1.3900   -0.3400 H   0  0  0  0  0  0  0  0  0  0  0  0
    1.2081   -0.3069    1.7112 H   0  0  0  0  0  0  0  0  0  0  0  0
    1.7926   -0.9919    0.0910 H   0  0  0  0  0  0  0  0  0  0  0  0
    0.7753    1.8235    0.4920 H   0  0  0  0  0  0  0  0  0  0  0  0
    2.0093    2.1298   -1.7235 H   0  0  0  0  0  0  0  0  0  0  0  0
    2.2736    0.3080   -1.6584 H   0  0  0  0  0  0  0  0  0  0  0  0
   -0.0759    1.7961   -2.4154 H   0  0  0  0  0  0  0  0  0  0  0  0
    0.2515    0.0807   -2.6099 H   0  0  0  0  0  0  0  0  0  0  0  0
    2.5771    1.8675    1.8945 H   0  0  0  0  0  0  0  0  0  0  0  0
    3.0087    2.6765    0.3932 H   0  0  0  0  0  0  0  0  0  0  0  0
    5.4072   -2.0713    3.1431 H   0  0  0  0  0  0  0  0  0  0  0  0
    7.5169   -3.3582    2.8476 H   0  0  0  0  0  0  0  0  0  0  0  0
    8.9710   -2.8586    0.9256 H   0  0  0  0  0  0  0  0  0  0  0  0
    6.7562    1.3837   -2.3603 H   0  0  0  0  0  0  0  0  0  0  0  0
    8.8008    0.1466   -2.6621 H   0  0  0  0  0  0  0  0  0  0  0  0
    9.4717   -1.6314   -1.0537 H   0  0  0  0  0  0  0  0  0  0  0  0
   -3.6681    2.9790   -1.1839 H   0  0  0  0  0  0  0  0  0  0  0  0
   -4.2987    3.0075    0.4555 H   0  0  0  0  0  0  0  0  0  0  0  0
   -5.3746    0.5024    1.8280 H   0  0  0  0  0  0  0  0  0  0  0  0
   -6.4366   -0.7305    3.4776 H   0  0  0  0  0  0  0  0  0  0  0  0
   -6.7634   -2.3725    2.8610 H   0  0  0  0  0  0  0  0  0  0  0  0
   -8.1381   -1.1795    3.1917 H   0  0  0  0  0  0  0  0  0  0  0  0
   -8.5413   -2.0448    0.7423 H   0  0  0  0  0  0  0  0  0  0  0  0
   -6.6993    0.3560   -2.2073 H   0  0  0  0  0  0  0  0  0  0  0  0
   -8.6041   -0.7009   -2.7348 H   0  0  0  0  0  0  0  0  0  0  0  0
   -8.1369   -2.3907   -2.2173 H   0  0  0  0  0  0  0  0  0  0  0  0
   -9.5820   -1.5788   -1.4185 H   0  0  0  0  0  0  0  0  0  0  0  0
  1  2  1  0
  2  3  1  0
  3  4  1  0
  4  5  1  0
  5  6  1  0
  6  7  1  0
  7  8  1  0
  8  9  1  0
  7 10  1  0
 10 11  1  0
 11 12  1  0
 12 13  2  0
 12 14  1  0
 14 15  2  0
 15 16  1  0
 16 17  2  0
 17 18  1  0
 18 19  2  0
 19 20  1  0
 20 21  1  0
 21 22  2  0
 20 23  2  0
 23 24  1  0
 24 25  2  0
  2 26  1  0
 26 27  1  0
 27 28  1  0
 28 29  2  0
 29 30  1  0
 30 31  1  0
 30 32  2  0
 32 33  1  0
 33 34  2  0
 33 35  1  0
  9  4  1  0
 21 11  1  0
 34 28  1  0
 19 14  1  0
 25 18  1  0
  1 36  1  0
  2 37  1  0
  3 38  1  0
  3 39  1  0
  5 40  1  0
  5 41  1  0
  6 42  1  0
  6 43  1  0
  7 44  1  0
  8 45  1  0
  8 46  1  0
  9 47  1  0
  9 48  1  0
 10 49  1  0
 10 50  1  0
 15 51  1  0
 16 52  1  0
 17 53  1  0
 23 54  1  0
 24 55  1  0
 25 56  1  0
 26 57  1  0
 26 58  1  0
 29 59  1  0
 31 60  1  0
 31 61  1  0
 31 62  1  0
 32 63  1  0
 34 64  1  0
 35 65  1  0
 35 66  1  0
 35 67  1  0
M  END
>  <Ligand ID>  (1) 
LIG0003747

>  <Ligand>  (1) 
MLS000572689

>  <SMILES>  (1) 
OC(CN1CCC(CC1)Cn1c(=O)c2cccc3c2c(c1=O)ccc3)COc1cc(C)cc(c1)C

>  <CID>  (1) 
2892067.0

>  <ChEMBL ID>  (1) 
nan

>  <InChiKey>  (1) 
FRBVGIBVLCZGTH-UHFFFAOYSA-N

>  <InChi>  (1) 
InChI=1S/C29H32N2O4/c1-19-13-20(2)15-24(14-19)35-18-23(32)17-30-11-9-21(10-12-30)16-31-28(33)25-7-3-5-22-6-4-8-26(27(22)25)29(31)34/h3-8,13-15,21,23,32H,9-12,16-18H2,1-2H3

>  <IUPAC Name>  (1) 
2-[[1-[3-(3,5-dimethylphenoxy)-2-hydroxypropyl]piperidin-4-yl]methyl]benzo[de]isoquinoline-1,3-dione

$$$$
