
     RDKit          3D

 39 42  0  0  0  0  0  0  0  0999 V2000
   -2.4999    2.4751   -1.2212 O   0  0  0  0  0  0  0  0  0  0  0  0
   -2.0009    1.5361   -0.5290 C   0  0  0  0  0  0  0  0  0  0  0  0
   -2.7303    0.6531    0.3217 N   0  0  0  0  0  0  0  0  0  0  0  0
   -4.1332    0.5203    0.6652 C   0  0  0  0  0  0  0  0  0  0  0  0
   -4.5159   -0.9204    0.3994 C   0  0  0  0  0  0  0  0  0  0  0  0
   -3.5812   -1.8725    0.9200 N   0  0  0  0  0  0  0  0  0  0  0  0
   -2.2200   -1.6654    0.5170 C   0  0  0  0  0  0  0  0  0  0  0  0
   -1.8065   -0.2807    0.9387 C   0  0  1  0  0  0  0  0  0  0  0  0
   -0.4744    0.1002    0.4022 C   0  0  0  0  0  0  0  0  0  0  0  0
   -0.5892    1.1717   -0.4634 C   0  0  0  0  0  0  0  0  0  0  0  0
    0.5650    1.6497   -1.0505 C   0  0  0  0  0  0  0  0  0  0  0  0
    1.8117    1.1080   -0.8111 C   0  0  0  0  0  0  0  0  0  0  0  0
    1.8749    0.0250    0.0726 C   0  0  0  0  0  0  0  0  0  0  0  0
    0.7519   -0.4778    0.6750 C   0  0  0  0  0  0  0  0  0  0  0  0
    3.2444   -0.5295    0.3022 C   0  0  0  0  0  0  0  0  0  0  0  0
    3.2855   -1.7132    1.2729 C   0  0  0  0  0  0  0  0  0  0  0  0
    4.0179   -0.7034   -0.9731 C   0  0  0  0  0  0  0  0  0  0  0  0
    4.4566    0.2632    0.1285 C   0  0  0  0  0  0  0  0  0  0  0  0
    0.4372    2.8094   -1.9868 C   0  0  0  0  0  0  0  0  0  0  0  0
   -0.1070    3.9260   -1.3399 F   0  0  0  0  0  0  0  0  0  0  0  0
    1.6868    3.2179   -2.4126 F   0  0  0  0  0  0  0  0  0  0  0  0
   -0.2918    2.5071   -3.1119 F   0  0  0  0  0  0  0  0  0  0  0  0
   -4.2280    0.7725    1.7539 H   0  0  0  0  0  0  0  0  0  0  0  0
   -4.7759    1.1587    0.0296 H   0  0  0  0  0  0  0  0  0  0  0  0
   -4.6398   -0.9914   -0.7093 H   0  0  0  0  0  0  0  0  0  0  0  0
   -5.4769   -1.0913    0.9204 H   0  0  0  0  0  0  0  0  0  0  0  0
   -3.8675   -2.8014    0.4998 H   0  0  0  0  0  0  0  0  0  0  0  0
   -2.0125   -1.8781   -0.5461 H   0  0  0  0  0  0  0  0  0  0  0  0
   -1.6093   -2.3936    1.1104 H   0  0  0  0  0  0  0  0  0  0  0  0
   -1.8797   -0.2210    2.0332 H   0  0  0  0  0  0  0  0  0  0  0  0
    2.6863    1.5097   -1.2886 H   0  0  0  0  0  0  0  0  0  0  0  0
    0.8332   -1.3163    1.3538 H   0  0  0  0  0  0  0  0  0  0  0  0
    2.6985   -1.3957    2.1758 H   0  0  0  0  0  0  0  0  0  0  0  0
    2.7446   -2.5484    0.8172 H   0  0  0  0  0  0  0  0  0  0  0  0
    4.3164   -1.9373    1.5860 H   0  0  0  0  0  0  0  0  0  0  0  0
    3.6437   -0.2696   -1.9168 H   0  0  0  0  0  0  0  0  0  0  0  0
    4.5573   -1.6649   -1.0957 H   0  0  0  0  0  0  0  0  0  0  0  0
    4.4728    1.3498   -0.0915 H   0  0  0  0  0  0  0  0  0  0  0  0
    5.3550   -0.0815    0.6521 H   0  0  0  0  0  0  0  0  0  0  0  0
  1  2  2  0
  2  3  1  0
  3  4  1  0
  4  5  1  0
  5  6  1  0
  6  7  1  0
  7  8  1  0
  8  9  1  0
  9 10  2  0
 10 11  1  0
 11 12  2  0
 12 13  1  0
 13 14  2  0
 13 15  1  0
 15 16  1  0
 15 17  1  0
 17 18  1  0
 11 19  1  0
 19 20  1  0
 19 21  1  0
 19 22  1  0
 10  2  1  0
 18 15  1  0
  8  3  1  0
 14  9  1  0
  4 23  1  0
  4 24  1  0
  5 25  1  0
  5 26  1  0
  6 27  1  0
  7 28  1  0
  7 29  1  0
  8 30  1  1
 12 31  1  0
 14 32  1  0
 16 33  1  0
 16 34  1  0
 16 35  1  0
 17 36  1  0
 17 37  1  0
 18 38  1  0
 18 39  1  0
M  END
>  <Ligand ID>  (1) 
LIG0003560

>  <Ligand>  (1) 
CHEMBL220833

>  <SMILES>  (1) 
O=C1N2CCNC[C@H]2c2c1c(cc(c2)C1(C)CC1)C(F)(F)F

>  <CID>  (1) 
11233293.0

>  <ChEMBL ID>  (1) 
nan

>  <InChiKey>  (1) 
WJKVURGGNRPOQA-LBPRGKRZSA-N

>  <InChi>  (1) 
InChI=1S/C16H17F3N2O/c1-15(2-3-15)9-6-10-12-8-20-4-5-21(12)14(22)13(10)11(7-9)16(17,18)19/h6-7,12,20H,2-5,8H2,1H3/t12-/m0/s1

>  <IUPAC Name>  (1) 
(10bR)-9-(1-methylcyclopropyl)-7-(trifluoromethyl)-2,3,4,10b-tetrahydro-1H-pyrazino[1,2-b]isoindol-6-one

$$$$
