
     RDKit          3D

133135  0  0  0  0  0  0  0  0999 V2000
   -8.4318   -1.0827   -1.1754 C   0  0  0  0  0  0  0  0  0  0  0  0
   -7.1173   -0.8815   -0.4483 C   0  0  0  0  0  0  0  0  0  0  0  0
   -7.2623   -0.5085    0.9885 C   0  0  1  0  0  0  0  0  0  0  0  0
   -5.8750   -0.3175    1.6603 C   0  0  2  0  0  0  0  0  0  0  0  0
   -5.1345    0.7186    0.9871 N   0  0  0  0  0  0  0  0  0  0  0  0
   -4.9713    2.0615    1.4513 C   0  0  0  0  0  0  0  0  0  0  0  0
   -5.6252    2.3408    2.4676 O   0  0  0  0  0  0  0  0  0  0  0  0
   -4.1309    3.0835    0.8268 C   0  0  1  0  0  0  0  0  0  0  0  0
   -3.1543    2.4665   -0.0509 N   0  0  0  0  0  0  0  0  0  0  0  0
   -1.8449    3.0811   -0.2492 C   0  0  0  0  0  0  0  0  0  0  0  0
   -1.7465    4.1949    0.2931 O   0  0  0  0  0  0  0  0  0  0  0  0
   -0.7825    2.4168   -1.0330 C   0  0  0  0  0  0  0  0  0  0  0  0
    0.2346    3.3420   -1.6132 C   0  0  0  0  0  0  0  0  0  0  0  0
    1.5524    2.3114   -2.3688 S   0  0  0  0  0  0  0  0  0  0  0  0
    2.8355    1.5025   -0.9308 S   0  0  0  0  0  0  0  0  0  0  0  0
    2.3867   -0.0186   -0.2285 C   0  0  0  0  0  0  0  0  0  0  0  0
    2.4687   -1.2293   -1.1835 C   0  0  2  0  0  0  0  0  0  0  0  0
    1.9639   -2.2767   -0.2237 N   0  0  0  0  0  0  0  0  0  0  0  0
    0.6747   -2.8325   -0.3146 C   0  0  0  0  0  0  0  0  0  0  0  0
   -0.0358   -2.5174   -1.2490 O   0  0  0  0  0  0  0  0  0  0  0  0
    0.2704   -3.8035    0.7937 C   0  0  1  0  0  0  0  0  0  0  0  0
   -1.1066   -4.1461    0.5195 N   0  0  0  0  0  0  0  0  0  0  0  0
   -2.1030   -3.1690    0.6240 C   0  0  0  0  0  0  0  0  0  0  0  0
   -1.6629   -2.0121    0.9330 O   0  0  0  0  0  0  0  0  0  0  0  0
   -3.5514   -3.2777    0.4320 C   0  0  1  0  0  0  0  0  0  0  0  0
   -4.1588   -1.9281    0.6206 N   0  0  0  0  0  0  0  0  0  0  0  0
   -5.2475   -1.6658    1.4654 C   0  0  0  0  0  0  0  0  0  0  0  0
   -5.7050   -2.6445    2.0811 O   0  0  0  0  0  0  0  0  0  0  0  0
   -3.9110   -3.6276   -0.9848 C   0  0  0  0  0  0  0  0  0  0  0  0
   -3.3905   -4.9091   -1.5324 C   0  0  0  0  0  0  0  0  0  0  0  0
   -3.8484   -6.0655   -0.7368 C   0  0  0  0  0  0  0  0  0  0  0  0
   -4.6983   -5.9196    0.2070 O   0  0  0  0  0  0  0  0  0  0  0  0
   -3.4035   -7.3991   -0.9381 N   0  0  0  0  0  0  0  0  0  0  0  0
    1.1835   -4.9567    0.9157 C   0  0  0  0  0  0  0  0  0  0  0  0
    0.8513   -5.9389    1.9605 C   0  0  0  0  0  0  0  0  0  0  0  0
   -0.1801   -5.7738    2.6569 O   0  0  0  0  0  0  0  0  0  0  0  0
    1.7201   -7.0428    2.1398 N   0  0  0  0  0  0  0  0  0  0  0  0
    3.8504   -1.5482   -1.5229 C   0  0  0  0  0  0  0  0  0  0  0  0
    4.4339   -2.3909   -0.7504 O   0  0  0  0  0  0  0  0  0  0  0  0
    4.6294   -1.0508   -2.5959 N   0  0  0  0  0  0  0  0  0  0  0  0
    4.0970   -0.1380   -3.5946 C   0  0  0  0  0  0  0  0  0  0  0  0
    4.5575   -0.1102   -4.9908 C   0  0  0  0  0  0  0  0  0  0  0  0
    4.9292    1.0431   -4.0382 C   0  0  0  0  0  0  0  0  0  0  0  0
    5.9795   -1.4977   -2.7553 C   0  0  0  0  0  0  0  0  0  0  0  0
    7.0196   -0.7408   -2.0606 C   0  0  0  0  0  0  0  0  0  0  0  0
    8.2219   -1.1649   -2.2667 O   0  0  0  0  0  0  0  0  0  0  0  0
    6.9017    0.3725   -1.2083 N   0  0  0  0  0  0  0  0  0  0  0  0
    8.0840    0.9854   -0.6305 C   0  0  2  0  0  0  0  0  0  0  0  0
    8.3531    0.5056    0.7680 C   0  0  0  0  0  0  0  0  0  0  0  0
    9.3420    0.9500    1.4283 O   0  0  0  0  0  0  0  0  0  0  0  0
    7.5301   -0.4581    1.4091 N   0  0  0  0  0  0  0  0  0  0  0  0
    7.7822   -0.9419    2.7465 C   0  0  0  0  0  0  0  0  0  0  0  0
    7.7545    0.0735    3.8084 C   0  0  0  0  0  0  0  0  0  0  0  0
    7.9909   -0.3412    4.9960 O   0  0  0  0  0  0  0  0  0  0  0  0
    7.4937    1.4475    3.6413 N   0  0  0  0  0  0  0  0  0  0  0  0
    8.2851    2.4132   -0.8794 C   0  0  0  0  0  0  0  0  0  0  0  0
    7.3264    3.4358   -0.4557 C   0  0  0  0  0  0  0  0  0  0  0  0
    7.1073    3.4587    1.0688 C   0  0  0  0  0  0  0  0  0  0  0  0
    6.0389    3.5484   -1.1897 C   0  0  0  0  0  0  0  0  0  0  0  0
   -4.9589    4.0755    0.0014 C   0  0  0  0  0  0  0  0  0  0  0  0
   -5.9435    4.8009    0.7960 C   0  0  0  0  0  0  0  0  0  0  0  0
   -7.2194    4.3254    0.9653 C   0  0  0  0  0  0  0  0  0  0  0  0
   -8.1975    4.9574    1.6804 C   0  0  0  0  0  0  0  0  0  0  0  0
   -7.8948    6.1592    2.2804 C   0  0  0  0  0  0  0  0  0  0  0  0
   -6.6253    6.6819    2.1413 C   0  0  0  0  0  0  0  0  0  0  0  0
   -5.6332    6.0207    1.4041 C   0  0  0  0  0  0  0  0  0  0  0  0
   -8.8913    6.8226    3.0215 O   0  0  0  0  0  0  0  0  0  0  0  0
   -8.2347    0.5578    1.2964 C   0  0  0  0  0  0  0  0  0  0  0  0
   -8.9525   -1.9176   -0.6957 H   0  0  0  0  0  0  0  0  0  0  0  0
   -9.0142   -0.1585   -1.2439 H   0  0  0  0  0  0  0  0  0  0  0  0
   -8.1661   -1.3623   -2.2207 H   0  0  0  0  0  0  0  0  0  0  0  0
   -6.5738   -0.1020   -1.0474 H   0  0  0  0  0  0  0  0  0  0  0  0
   -6.5303   -1.8088   -0.5917 H   0  0  0  0  0  0  0  0  0  0  0  0
   -7.6372   -1.4463    1.5084 H   0  0  0  0  0  0  0  0  0  0  0  0
   -6.1275   -0.0990    2.7108 H   0  0  0  0  0  0  0  0  0  0  0  0
   -4.6954    0.5147    0.0964 H   0  0  0  0  0  0  0  0  0  0  0  0
   -3.6110    3.7195    1.6034 H   0  0  0  0  0  0  0  0  0  0  0  0
   -3.2674    1.6109   -0.5855 H   0  0  0  0  0  0  0  0  0  0  0  0
   -1.3381    1.8663   -1.8557 H   0  0  0  0  0  0  0  0  0  0  0  0
   -0.2803    1.6412   -0.4194 H   0  0  0  0  0  0  0  0  0  0  0  0
   -0.1973    3.9985   -2.3924 H   0  0  0  0  0  0  0  0  0  0  0  0
    0.6913    3.9333   -0.7920 H   0  0  0  0  0  0  0  0  0  0  0  0
    3.0188   -0.3121    0.6598 H   0  0  0  0  0  0  0  0  0  0  0  0
    1.3079   -0.0110    0.1385 H   0  0  0  0  0  0  0  0  0  0  0  0
    1.8394   -1.0579   -2.0120 H   0  0  0  0  0  0  0  0  0  0  0  0
    2.5719   -2.5981    0.5179 H   0  0  0  0  0  0  0  0  0  0  0  0
    0.3300   -3.1663    1.7222 H   0  0  0  0  0  0  0  0  0  0  0  0
   -1.3456   -5.0875    0.2815 H   0  0  0  0  0  0  0  0  0  0  0  0
   -3.9958   -3.9782    1.1619 H   0  0  0  0  0  0  0  0  0  0  0  0
   -3.7453   -1.1706    0.1034 H   0  0  0  0  0  0  0  0  0  0  0  0
   -3.5515   -2.7760   -1.6327 H   0  0  0  0  0  0  0  0  0  0  0  0
   -5.0242   -3.5597   -1.0663 H   0  0  0  0  0  0  0  0  0  0  0  0
   -3.8679   -4.9884   -2.5727 H   0  0  0  0  0  0  0  0  0  0  0  0
   -2.3120   -4.8538   -1.7206 H   0  0  0  0  0  0  0  0  0  0  0  0
   -3.3106   -7.8243   -1.9031 H   0  0  0  0  0  0  0  0  0  0  0  0
   -3.1599   -7.9606   -0.0765 H   0  0  0  0  0  0  0  0  0  0  0  0
    2.2308   -4.5609    1.0454 H   0  0  0  0  0  0  0  0  0  0  0  0
    1.2372   -5.4558   -0.0998 H   0  0  0  0  0  0  0  0  0  0  0  0
    2.6534   -6.9494    2.6426 H   0  0  0  0  0  0  0  0  0  0  0  0
    1.5144   -8.0029    1.8002 H   0  0  0  0  0  0  0  0  0  0  0  0
    3.0070    0.1126   -3.4796 H   0  0  0  0  0  0  0  0  0  0  0  0
    5.4235   -0.6041   -5.4124 H   0  0  0  0  0  0  0  0  0  0  0  0
    3.7989    0.1332   -5.7980 H   0  0  0  0  0  0  0  0  0  0  0  0
    4.4390    2.0044   -4.2982 H   0  0  0  0  0  0  0  0  0  0  0  0
    5.9933    1.1240   -3.7359 H   0  0  0  0  0  0  0  0  0  0  0  0
    6.0624   -2.6101   -2.5131 H   0  0  0  0  0  0  0  0  0  0  0  0
    6.1970   -1.5153   -3.8709 H   0  0  0  0  0  0  0  0  0  0  0  0
    5.9242    0.7147   -1.0180 H   0  0  0  0  0  0  0  0  0  0  0  0
    8.9568    0.4844   -1.1969 H   0  0  0  0  0  0  0  0  0  0  0  0
    6.7055   -0.7993    0.8254 H   0  0  0  0  0  0  0  0  0  0  0  0
    7.0584   -1.7425    3.0329 H   0  0  0  0  0  0  0  0  0  0  0  0
    8.8015   -1.4043    2.7836 H   0  0  0  0  0  0  0  0  0  0  0  0
    6.4784    1.7189    3.5124 H   0  0  0  0  0  0  0  0  0  0  0  0
    8.2606    2.1521    3.6478 H   0  0  0  0  0  0  0  0  0  0  0  0
    8.4386    2.5289   -1.9987 H   0  0  0  0  0  0  0  0  0  0  0  0
    9.3010    2.7405   -0.4818 H   0  0  0  0  0  0  0  0  0  0  0  0
    7.8632    4.4333   -0.5995 H   0  0  0  0  0  0  0  0  0  0  0  0
    6.6840    4.4364    1.3545 H   0  0  0  0  0  0  0  0  0  0  0  0
    6.4980    2.5852    1.2861 H   0  0  0  0  0  0  0  0  0  0  0  0
    8.0758    3.3552    1.5978 H   0  0  0  0  0  0  0  0  0  0  0  0
    5.1490    3.3362   -0.5622 H   0  0  0  0  0  0  0  0  0  0  0  0
    5.9721    4.5519   -1.6705 H   0  0  0  0  0  0  0  0  0  0  0  0
    5.9827    2.8425   -2.0504 H   0  0  0  0  0  0  0  0  0  0  0  0
   -4.2508    4.7901   -0.4618 H   0  0  0  0  0  0  0  0  0  0  0  0
   -5.4491    3.5521   -0.8473 H   0  0  0  0  0  0  0  0  0  0  0  0
   -7.4571    3.3895    0.4955 H   0  0  0  0  0  0  0  0  0  0  0  0
   -9.1843    4.4883    1.7531 H   0  0  0  0  0  0  0  0  0  0  0  0
   -6.4416    7.6270    2.6334 H   0  0  0  0  0  0  0  0  0  0  0  0
   -4.6464    6.4573    1.3151 H   0  0  0  0  0  0  0  0  0  0  0  0
   -9.8262    6.8424    2.5951 H   0  0  0  0  0  0  0  0  0  0  0  0
   -8.4382    1.2455    0.4421 H   0  0  0  0  0  0  0  0  0  0  0  0
   -7.9934    1.0454    2.2403 H   0  0  0  0  0  0  0  0  0  0  0  0
   -9.2477    0.0800    1.4741 H   0  0  0  0  0  0  0  0  0  0  0  0
  1  2  1  0
  2  3  1  0
  3  4  1  0
  4  5  1  0
  5  6  1  0
  6  7  2  0
  6  8  1  0
  8  9  1  0
  9 10  1  0
 10 11  2  0
 10 12  1  0
 12 13  1  0
 13 14  1  0
 14 15  1  0
 15 16  1  0
 16 17  1  0
 17 18  1  0
 18 19  1  0
 19 20  2  0
 19 21  1  0
 21 22  1  0
 22 23  1  0
 23 24  2  0
 23 25  1  0
 25 26  1  0
 26 27  1  0
 27 28  2  0
 25 29  1  0
 29 30  1  0
 30 31  1  0
 31 32  2  0
 31 33  1  0
 21 34  1  0
 34 35  1  0
 35 36  2  0
 35 37  1  0
 17 38  1  0
 38 39  2  0
 38 40  1  0
 40 41  1  0
 41 42  1  0
 42 43  1  0
 40 44  1  0
 44 45  1  0
 45 46  2  0
 45 47  1  0
 47 48  1  0
 48 49  1  0
 49 50  2  0
 49 51  1  0
 51 52  1  0
 52 53  1  0
 53 54  2  0
 53 55  1  0
 48 56  1  0
 56 57  1  0
 57 58  1  0
 57 59  1  0
  8 60  1  0
 60 61  1  0
 61 62  2  0
 62 63  1  0
 63 64  2  0
 64 65  1  0
 65 66  2  0
 64 67  1  0
  3 68  1  0
 27  4  1  0
 43 41  1  0
 66 61  1  0
  1 69  1  0
  1 70  1  0
  1 71  1  0
  2 72  1  0
  2 73  1  0
  3 74  1  1
  4 75  1  1
  5 76  1  0
  8 77  1  1
  9 78  1  0
 12 79  1  0
 12 80  1  0
 13 81  1  0
 13 82  1  0
 16 83  1  0
 16 84  1  0
 17 85  1  6
 18 86  1  0
 21 87  1  1
 22 88  1  0
 25 89  1  1
 26 90  1  0
 29 91  1  0
 29 92  1  0
 30 93  1  0
 30 94  1  0
 33 95  1  0
 33 96  1  0
 34 97  1  0
 34 98  1  0
 37 99  1  0
 37100  1  0
 41101  1  0
 42102  1  0
 42103  1  0
 43104  1  0
 43105  1  0
 44106  1  0
 44107  1  0
 47108  1  0
 48109  1  6
 51110  1  0
 52111  1  0
 52112  1  0
 55113  1  0
 55114  1  0
 56115  1  0
 56116  1  0
 57117  1  0
 58118  1  0
 58119  1  0
 58120  1  0
 59121  1  0
 59122  1  0
 59123  1  0
 60124  1  0
 60125  1  0
 62126  1  0
 63127  1  0
 65128  1  0
 66129  1  0
 67130  1  0
 68131  1  0
 68132  1  0
 68133  1  0
M  END
>  <Ligand ID>  (1) 
LIG0001627

>  <Ligand>  (1) 
CHEMBL3353929

>  <SMILES>  (1) 
CC[C@@H]([C@@H]1NC(=O)[C@@H](NC(=O)CCSSC[C@H](NC(=O)[C@@H](NC(=O)[C@@H](NC1=O)CCC(=O)N)CC(=O)N)C(=O)N(C1CC1)CC(=O)N[C@H](C(=O)NCC(=O)N)CC(C)C)Cc1ccc(cc1)O)C

>  <CID>  (1) 
118719818.0

>  <ChEMBL ID>  (1) 
nan

>  <InChiKey>  (1) 
VWLQNCBBLLDUFC-HFIQAWKWSA-N

>  <InChi>  (1) 
InChI=1S/C43H65N11O12S2/c1-5-23(4)37-42(65)50-27(12-13-32(44)56)39(62)51-30(18-33(45)57)40(63)52-31(21-68-67-15-14-35(59)48-29(41(64)53-37)17-24-6-10-26(55)11-7-24)43(66)54(25-8-9-25)20-36(60)49-28(16-22(2)3)38(61)47-19-34(46)58/h6-7,10-11,22-23,25,27-31,37,55H,5,8-9,12-21H2,1-4H3,(H2,44,56)(H2,45,57)(H2,46,58)(H,47,61)(H,48,59)(H,49,60)(H,50,65)(H,51,62)(H,52,63)(H,53,64)/t23-,27-,28-,29-,30-,31-,37-/m0/s1

>  <IUPAC Name>  (1) 
(4R,7S,10S,13S,16S)-7-(2-amino-2-oxoethyl)-N-[2-[[(2S)-1-[(2-amino-2-oxoethyl)amino]-4-methyl-1-oxopentan-2-yl]amino]-2-oxoethyl]-10-(3-amino-3-oxopropyl)-13-[(2S)-butan-2-yl]-N-cyclopropyl-16-[(4-hydroxyphenyl)methyl]-6,9,12,15,18-pentaoxo-1,2-dithia-5,8,11,14,17-pentazacycloicosane-4-carboxamide

$$$$
