
     RDKit          3D

 78 81  0  0  0  0  0  0  0  0999 V2000
   -6.3209    3.3249    0.6715 C   0  0  0  0  0  0  0  0  0  0  0  0
   -6.2132    2.6609   -0.6878 C   0  0  0  0  0  0  0  0  0  0  0  0
   -6.6436    1.2134   -0.5930 C   0  0  0  0  0  0  0  0  0  0  0  0
   -6.5630    0.4967   -1.8993 C   0  0  0  0  0  0  0  0  0  0  0  0
   -6.9857   -0.9532   -1.8380 C   0  0  0  0  0  0  0  0  0  0  0  0
   -8.0591    1.2309   -0.1481 C   0  0  0  0  0  0  0  0  0  0  0  0
   -9.0280    1.7177   -0.7913 O   0  0  0  0  0  0  0  0  0  0  0  0
   -8.1687    0.6174    1.1135 N   0  0  0  0  0  0  0  0  0  0  0  0
   -6.8613    0.1861    1.4861 C   0  0  0  0  0  0  0  0  0  0  0  0
   -5.9449    0.5060    0.5106 C   0  0  0  0  0  0  0  0  0  0  0  0
   -4.5834    0.1746    0.6481 C   0  0  0  0  0  0  0  0  0  0  0  0
   -3.7596    0.5258   -0.3539 O   0  0  0  0  0  0  0  0  0  0  0  0
   -2.4296    0.3968   -0.6233 C   0  0  0  0  0  0  0  0  0  0  0  0
   -1.9831   -1.0378   -0.7237 C   0  0  2  0  0  0  0  0  0  0  0  0
   -0.5776   -1.1785   -1.2096 C   0  0  0  0  0  0  0  0  0  0  0  0
    0.4774   -0.7706   -0.4029 N   0  0  0  0  0  0  0  0  0  0  0  0
    0.8589   -1.4168    0.7718 C   0  0  0  0  0  0  0  0  0  0  0  0
    2.0676   -0.7631    1.4473 C   0  0  0  0  0  0  0  0  0  0  0  0
    3.2680   -0.7492    0.5964 C   0  0  0  0  0  0  0  0  0  0  0  0
    3.5348    0.2741   -0.2899 C   0  0  0  0  0  0  0  0  0  0  0  0
    4.6640    0.2950   -1.0848 C   0  0  0  0  0  0  0  0  0  0  0  0
    5.5678   -0.7418   -0.9980 C   0  0  0  0  0  0  0  0  0  0  0  0
    5.3161   -1.7663   -0.1212 C   0  0  0  0  0  0  0  0  0  0  0  0
    4.1863   -1.7835    0.6712 C   0  0  0  0  0  0  0  0  0  0  0  0
    6.7029   -0.7212   -1.7973 O   0  0  0  0  0  0  0  0  0  0  0  0
    7.8451   -0.0885   -1.3472 C   0  0  0  0  0  0  0  0  0  0  0  0
    8.9783   -0.0737   -2.1405 C   0  0  0  0  0  0  0  0  0  0  0  0
   10.0939    0.5783   -1.6326 C   0  0  0  0  0  0  0  0  0  0  0  0
   10.0804    1.1822   -0.4014 C   0  0  0  0  0  0  0  0  0  0  0  0
    8.9225    1.1269    0.3282 C   0  0  0  0  0  0  0  0  0  0  0  0
    7.8056    0.4999   -0.1284 N   0  0  0  0  0  0  0  0  0  0  0  0
   11.2701    1.8566    0.0970 C   0  0  0  0  0  0  0  0  0  0  0  0
   12.2844    1.8370   -0.6620 O   0  0  0  0  0  0  0  0  0  0  0  0
   11.2859    2.4971    1.3608 N   0  0  0  0  0  0  0  0  0  0  0  0
    1.1976   -2.8792    0.6398 C   0  0  0  0  0  0  0  0  0  0  0  0
   -0.2409   -1.3414    1.8052 C   0  0  0  0  0  0  0  0  0  0  0  0
   -2.7728   -1.5556   -1.7990 O   0  0  0  0  0  0  0  0  0  0  0  0
   -4.2582   -0.4792    1.8137 C   0  0  0  0  0  0  0  0  0  0  0  0
   -5.1801   -0.8002    2.7939 C   0  0  0  0  0  0  0  0  0  0  0  0
   -6.4879   -0.4709    2.6393 C   0  0  0  0  0  0  0  0  0  0  0  0
   -5.3485    3.7502    1.0107 H   0  0  0  0  0  0  0  0  0  0  0  0
   -7.0273    4.1995    0.6367 H   0  0  0  0  0  0  0  0  0  0  0  0
   -6.7700    2.6472    1.4259 H   0  0  0  0  0  0  0  0  0  0  0  0
   -5.2007    2.7705   -1.1139 H   0  0  0  0  0  0  0  0  0  0  0  0
   -6.9201    3.1690   -1.3720 H   0  0  0  0  0  0  0  0  0  0  0  0
   -5.5037    0.5136   -2.2256 H   0  0  0  0  0  0  0  0  0  0  0  0
   -7.1824    1.0100   -2.6529 H   0  0  0  0  0  0  0  0  0  0  0  0
   -6.4110   -1.4737   -1.0350 H   0  0  0  0  0  0  0  0  0  0  0  0
   -6.6902   -1.3892   -2.8360 H   0  0  0  0  0  0  0  0  0  0  0  0
   -8.0664   -1.0905   -1.7437 H   0  0  0  0  0  0  0  0  0  0  0  0
   -9.0534    0.4961    1.6832 H   0  0  0  0  0  0  0  0  0  0  0  0
   -2.2413    0.8534   -1.6436 H   0  0  0  0  0  0  0  0  0  0  0  0
   -1.8121    1.0186    0.0598 H   0  0  0  0  0  0  0  0  0  0  0  0
   -2.2499   -1.6702    0.1168 H   0  0  0  0  0  0  0  0  0  0  0  0
   -0.5009   -2.2066   -1.6332 H   0  0  0  0  0  0  0  0  0  0  0  0
   -0.5392   -0.5376   -2.1473 H   0  0  0  0  0  0  0  0  0  0  0  0
    0.5464    0.2475   -0.3340 H   0  0  0  0  0  0  0  0  0  0  0  0
    1.7594    0.2618    1.7578 H   0  0  0  0  0  0  0  0  0  0  0  0
    2.2162   -1.3350    2.3912 H   0  0  0  0  0  0  0  0  0  0  0  0
    2.8487    1.1092   -0.3897 H   0  0  0  0  0  0  0  0  0  0  0  0
    4.8524    1.1241   -1.7855 H   0  0  0  0  0  0  0  0  0  0  0  0
    6.0581   -2.5633   -0.0852 H   0  0  0  0  0  0  0  0  0  0  0  0
    4.0270   -2.6149    1.3522 H   0  0  0  0  0  0  0  0  0  0  0  0
    9.0286   -0.5395   -3.1174 H   0  0  0  0  0  0  0  0  0  0  0  0
   10.9884    0.5975   -2.2430 H   0  0  0  0  0  0  0  0  0  0  0  0
    8.9227    1.6114    1.3059 H   0  0  0  0  0  0  0  0  0  0  0  0
   10.4423    3.0394    1.7049 H   0  0  0  0  0  0  0  0  0  0  0  0
   12.1039    2.4784    2.0173 H   0  0  0  0  0  0  0  0  0  0  0  0
    1.7160   -3.2116    1.5688 H   0  0  0  0  0  0  0  0  0  0  0  0
    0.2372   -3.4693    0.6273 H   0  0  0  0  0  0  0  0  0  0  0  0
    1.8195   -3.1510   -0.2055 H   0  0  0  0  0  0  0  0  0  0  0  0
   -0.8019   -2.3023    1.8805 H   0  0  0  0  0  0  0  0  0  0  0  0
    0.1742   -1.2111    2.8474 H   0  0  0  0  0  0  0  0  0  0  0  0
   -0.8942   -0.4612    1.6728 H   0  0  0  0  0  0  0  0  0  0  0  0
   -2.5834   -2.4939   -1.9525 H   0  0  0  0  0  0  0  0  0  0  0  0
   -3.2454   -0.7546    1.9979 H   0  0  0  0  0  0  0  0  0  0  0  0
   -4.8638   -1.3110    3.6809 H   0  0  0  0  0  0  0  0  0  0  0  0
   -7.1811   -0.7386    3.4283 H   0  0  0  0  0  0  0  0  0  0  0  0
  1  2  1  0
  2  3  1  0
  3  4  1  0
  4  5  1  0
  3  6  1  0
  6  7  2  0
  6  8  1  0
  8  9  1  0
  9 10  2  0
 10 11  1  0
 11 12  1  0
 12 13  1  0
 13 14  1  0
 14 15  1  0
 15 16  1  0
 16 17  1  0
 17 18  1  0
 18 19  1  0
 19 20  2  0
 20 21  1  0
 21 22  2  0
 22 23  1  0
 23 24  2  0
 22 25  1  0
 25 26  1  0
 26 27  2  0
 27 28  1  0
 28 29  2  0
 29 30  1  0
 30 31  2  0
 29 32  1  0
 32 33  2  0
 32 34  1  0
 17 35  1  0
 17 36  1  0
 14 37  1  0
 11 38  2  0
 38 39  1  0
 39 40  2  0
 10  3  1  0
 24 19  1  0
 31 26  1  0
 40  9  1  0
  1 41  1  0
  1 42  1  0
  1 43  1  0
  2 44  1  0
  2 45  1  0
  4 46  1  0
  4 47  1  0
  5 48  1  0
  5 49  1  0
  5 50  1  0
  8 51  1  0
 13 52  1  0
 13 53  1  0
 14 54  1  1
 15 55  1  0
 15 56  1  0
 16 57  1  0
 18 58  1  0
 18 59  1  0
 20 60  1  0
 21 61  1  0
 23 62  1  0
 24 63  1  0
 27 64  1  0
 28 65  1  0
 30 66  1  0
 34 67  1  0
 34 68  1  0
 35 69  1  0
 35 70  1  0
 35 71  1  0
 36 72  1  0
 36 73  1  0
 36 74  1  0
 37 75  1  0
 38 76  1  0
 39 77  1  0
 40 78  1  0
M  END
>  <Ligand ID>  (1) 
LIG0004089

>  <Ligand>  (1) 
CHEMBL251579

>  <SMILES>  (1) 
CCC1(CC)C(=O)Nc2c1c(OC[C@H](CNC(Cc1ccc(cc1)Oc1ccc(cn1)C(=O)N)(C)C)O)ccc2

>  <CID>  (1) 
44444171.0

>  <ChEMBL ID>  (1) 
nan

>  <InChiKey>  (1) 
FCHGBYSOXBSHIM-QFIPXVFZSA-N

>  <InChi>  (1) 
InChI=1S/C31H38N4O5/c1-5-31(6-2)27-24(35-29(31)38)8-7-9-25(27)39-19-22(36)18-34-30(3,4)16-20-10-13-23(14-11-20)40-26-15-12-21(17-33-26)28(32)37/h7-15,17,22,34,36H,5-6,16,18-19H2,1-4H3,(H2,32,37)(H,35,38)/t22-/m0/s1

>  <IUPAC Name>  (1) 
6-[4-[2-[[(2S)-3-[(3,3-diethyl-2-oxo-1H-indol-4-yl)oxy]-2-hydroxypropyl]amino]-2-methylpropyl]phenoxy]pyridine-3-carboxamide

$$$$
