
     RDKit          3D

 42 43  0  0  0  0  0  0  0  0999 V2000
   -5.1135    0.8768   -0.9710 C   0  0  0  0  0  0  0  0  0  0  0  0
   -5.1160    0.1467    0.2924 N   0  0  0  0  0  0  0  0  0  0  0  0
   -3.9345    0.3634    1.0639 C   0  0  0  0  0  0  0  0  0  0  0  0
   -2.6327    0.1985    0.3243 C   0  0  0  0  0  0  0  0  0  0  0  0
   -2.4101   -1.1692   -0.2375 C   0  0  0  0  0  0  0  0  0  0  0  0
   -1.2250   -1.3061   -0.9084 O   0  0  0  0  0  0  0  0  0  0  0  0
    0.0554   -1.2281   -0.5203 C   0  0  0  0  0  0  0  0  0  0  0  0
    0.5552   -0.9997    0.7397 C   0  0  0  0  0  0  0  0  0  0  0  0
    1.9071   -0.9355    1.0246 C   0  0  0  0  0  0  0  0  0  0  0  0
    2.8492   -1.1026    0.0331 C   0  0  0  0  0  0  0  0  0  0  0  0
    2.3779   -1.3341   -1.2407 C   0  0  0  0  0  0  0  0  0  0  0  0
    1.0341   -1.3968   -1.5198 C   0  0  0  0  0  0  0  0  0  0  0  0
    4.1725   -1.0289    0.3729 O   0  0  0  0  0  0  0  0  0  0  0  0
    4.8662    0.1682    0.3478 C   0  0  0  0  0  0  0  0  0  0  0  0
    6.2131    0.1029    0.7183 C   0  0  0  0  0  0  0  0  0  0  0  0
    6.9782    1.2642    0.7185 C   0  0  0  0  0  0  0  0  0  0  0  0
    6.4280    2.4773    0.3591 C   0  0  0  0  0  0  0  0  0  0  0  0
    5.0831    2.5019   -0.0037 C   0  0  0  0  0  0  0  0  0  0  0  0
    4.2981    1.3721   -0.0147 C   0  0  0  0  0  0  0  0  0  0  0  0
   -5.5286   -1.2150    0.1414 C   0  0  0  0  0  0  0  0  0  0  0  0
   -4.8502    0.2129   -1.8086 H   0  0  0  0  0  0  0  0  0  0  0  0
   -4.4088    1.7339   -0.8522 H   0  0  0  0  0  0  0  0  0  0  0  0
   -6.1370    1.2816   -1.1732 H   0  0  0  0  0  0  0  0  0  0  0  0
   -5.9031    0.6164    0.8480 H   0  0  0  0  0  0  0  0  0  0  0  0
   -3.9347   -0.2834    1.9374 H   0  0  0  0  0  0  0  0  0  0  0  0
   -3.9582    1.4512    1.3670 H   0  0  0  0  0  0  0  0  0  0  0  0
   -2.5759    0.9044   -0.5446 H   0  0  0  0  0  0  0  0  0  0  0  0
   -1.8110    0.4827    0.9927 H   0  0  0  0  0  0  0  0  0  0  0  0
   -3.2449   -1.3367   -0.9805 H   0  0  0  0  0  0  0  0  0  0  0  0
   -2.5247   -1.8916    0.6143 H   0  0  0  0  0  0  0  0  0  0  0  0
   -0.1077   -0.8770    1.5801 H   0  0  0  0  0  0  0  0  0  0  0  0
    2.2451   -0.7503    2.0464 H   0  0  0  0  0  0  0  0  0  0  0  0
    3.0810   -1.4693   -2.0376 H   0  0  0  0  0  0  0  0  0  0  0  0
    0.7356   -1.5834   -2.5510 H   0  0  0  0  0  0  0  0  0  0  0  0
    6.6567   -0.8463    1.0030 H   0  0  0  0  0  0  0  0  0  0  0  0
    8.0149    1.1655    1.0122 H   0  0  0  0  0  0  0  0  0  0  0  0
    7.0358    3.3897    0.3611 H   0  0  0  0  0  0  0  0  0  0  0  0
    4.6802    3.4601   -0.2791 H   0  0  0  0  0  0  0  0  0  0  0  0
    3.2537    1.3986   -0.2977 H   0  0  0  0  0  0  0  0  0  0  0  0
   -5.6269   -1.4804   -0.9497 H   0  0  0  0  0  0  0  0  0  0  0  0
   -6.5744   -1.3988    0.5336 H   0  0  0  0  0  0  0  0  0  0  0  0
   -4.9033   -1.9356    0.6774 H   0  0  0  0  0  0  0  0  0  0  0  0
  1  2  1  0
  2  3  1  0
  3  4  1  0
  4  5  1  0
  5  6  1  0
  6  7  1  0
  7  8  2  0
  8  9  1  0
  9 10  2  0
 10 11  1  0
 11 12  2  0
 10 13  1  0
 13 14  1  0
 14 15  2  0
 15 16  1  0
 16 17  2  0
 17 18  1  0
 18 19  2  0
  2 20  1  0
 12  7  1  0
 19 14  1  0
  1 21  1  0
  1 22  1  0
  1 23  1  0
  2 24  1  0
  3 25  1  0
  3 26  1  0
  4 27  1  0
  4 28  1  0
  5 29  1  0
  5 30  1  0
  8 31  1  0
  9 32  1  0
 11 33  1  0
 12 34  1  0
 15 35  1  0
 16 36  1  0
 17 37  1  0
 18 38  1  0
 19 39  1  0
 20 40  1  0
 20 41  1  0
 20 42  1  0
M  CHG  1   2   1
M  END
>  <Ligand ID>  (1) 
LIG0005553

>  <Ligand>  (1) 
CHEMBL229075

>  <SMILES>  (1) 
C[NH+](CCCOc1ccc(cc1)Oc1ccccc1)C

>  <CID>  (1) 
91935923.0

>  <ChEMBL ID>  (1) 
nan

>  <InChiKey>  (1) 
OKDIUAIMLPDOKR-UHFFFAOYSA-O

>  <InChi>  (1) 
InChI=1S/C17H21NO2/c1-18(2)13-6-14-19-15-9-11-17(12-10-15)20-16-7-4-3-5-8-16/h3-5,7-12H,6,13-14H2,1-2H3/p+1

>  <IUPAC Name>  (1) 
dimethyl-[3-(4-phenoxyphenoxy)propyl]azanium

$$$$
