
     RDKit          3D

 83 87  0  0  0  0  0  0  0  0999 V2000
   -6.5593    3.6087   -0.2622 N   0  0  0  0  0  0  0  0  0  0  0  0
   -6.6797    2.7457   -1.4023 C   0  0  0  0  0  0  0  0  0  0  0  0
   -5.7145    1.6077   -1.4462 C   0  0  0  0  0  0  0  0  0  0  0  0
   -5.7856    0.6828   -0.3616 N   0  0  0  0  0  0  0  0  0  0  0  0
   -6.8656   -0.6650   -0.5121 S   0  0  0  0  0  0  0  0  0  0  0  0
   -7.5404   -0.6576   -1.8442 O   0  0  0  0  0  0  0  0  0  0  0  0
   -6.0946   -1.9549   -0.3901 O   0  0  0  0  0  0  0  0  0  0  0  0
   -8.0716   -0.5599    0.7765 C   0  0  0  0  0  0  0  0  0  0  0  0
   -5.0399    0.7649    0.8450 C   0  0  0  0  0  0  0  0  0  0  0  0
   -5.5558    1.4563    1.9466 C   0  0  0  0  0  0  0  0  0  0  0  0
   -4.8501    1.5506    3.1366 C   0  0  0  0  0  0  0  0  0  0  0  0
   -3.6171    0.9618    3.2622 C   0  0  0  0  0  0  0  0  0  0  0  0
   -3.1058    0.2793    2.1788 C   0  0  0  0  0  0  0  0  0  0  0  0
   -3.8028    0.1733    0.9708 C   0  0  0  0  0  0  0  0  0  0  0  0
   -3.1610   -0.5651   -0.0516 N   0  0  0  0  0  0  0  0  0  0  0  0
   -2.7391   -0.0624   -1.3202 C   0  0  0  0  0  0  0  0  0  0  0  0
   -1.5912   -0.8957   -1.8792 C   0  0  0  0  0  0  0  0  0  0  0  0
   -0.7757   -1.3069   -0.7320 N   0  0  0  0  0  0  0  0  0  0  0  0
   -1.3760   -2.1904    0.2136 C   0  0  0  0  0  0  0  0  0  0  0  0
   -2.9005   -1.9904    0.2096 C   0  0  0  0  0  0  0  0  0  0  0  0
    0.5276   -0.7735   -0.6767 C   0  0  0  0  0  0  0  0  0  0  0  0
    0.8536    0.0315   -1.6047 O   0  0  0  0  0  0  0  0  0  0  0  0
    1.5518   -1.0517    0.3465 C   0  0  1  0  0  0  0  0  0  0  0  0
    1.9164   -2.4966    0.4874 C   0  0  0  0  0  0  0  0  0  0  0  0
    2.4584   -3.1686   -0.6776 C   0  0  0  0  0  0  0  0  0  0  0  0
    1.6656   -3.8261   -1.6172 C   0  0  0  0  0  0  0  0  0  0  0  0
    2.2077   -4.4590   -2.7193 C   0  0  0  0  0  0  0  0  0  0  0  0
    3.5818   -4.4468   -2.9076 C   0  0  0  0  0  0  0  0  0  0  0  0
    4.3905   -3.8082   -2.0008 C   0  0  0  0  0  0  0  0  0  0  0  0
    3.8269   -3.1787   -0.9010 C   0  0  0  0  0  0  0  0  0  0  0  0
    4.3342   -5.2330   -4.2887 Cl  0  0  0  0  0  0  0  0  0  0  0  0
    2.7190   -0.2141    0.1124 N   0  0  0  0  0  0  0  0  0  0  0  0
    3.1757    0.7760    0.9898 C   0  0  0  0  0  0  0  0  0  0  0  0
    2.5567    0.9885    2.0740 O   0  0  0  0  0  0  0  0  0  0  0  0
    4.3921    1.5502    0.6019 C   0  0  1  0  0  0  0  0  0  0  0  0
    4.6537    2.4957    1.6525 N   0  0  0  0  0  0  0  0  0  0  0  0
    5.9298    2.3142    2.3159 C   0  0  0  0  0  0  0  0  0  0  0  0
    6.9707    2.3646    1.2528 C   0  0  0  0  0  0  0  0  0  0  0  0
    6.7777    1.5031    0.1772 C   0  0  0  0  0  0  0  0  0  0  0  0
    5.5440    0.6543    0.2587 C   0  0  0  0  0  0  0  0  0  0  0  0
    7.6548    1.4349   -0.8837 C   0  0  0  0  0  0  0  0  0  0  0  0
    8.7582    2.2754   -0.8347 C   0  0  0  0  0  0  0  0  0  0  0  0
    8.9528    3.1422    0.2467 C   0  0  0  0  0  0  0  0  0  0  0  0
    8.0652    3.1980    1.3004 C   0  0  0  0  0  0  0  0  0  0  0  0
   -7.5159    3.9477    0.0157 H   0  0  0  0  0  0  0  0  0  0  0  0
   -5.8779    4.3849   -0.3835 H   0  0  0  0  0  0  0  0  0  0  0  0
   -7.7440    2.3823   -1.5059 H   0  0  0  0  0  0  0  0  0  0  0  0
   -6.4996    3.3965   -2.3050 H   0  0  0  0  0  0  0  0  0  0  0  0
   -5.8675    1.0442   -2.3975 H   0  0  0  0  0  0  0  0  0  0  0  0
   -4.6870    2.0739   -1.4658 H   0  0  0  0  0  0  0  0  0  0  0  0
   -9.0149   -1.0839    0.5275 H   0  0  0  0  0  0  0  0  0  0  0  0
   -7.6684   -0.9875    1.7089 H   0  0  0  0  0  0  0  0  0  0  0  0
   -8.3231    0.5099    0.9230 H   0  0  0  0  0  0  0  0  0  0  0  0
   -6.5168    1.9390    1.9304 H   0  0  0  0  0  0  0  0  0  0  0  0
   -5.2487    2.0826    3.9832 H   0  0  0  0  0  0  0  0  0  0  0  0
   -3.0883    1.0507    4.2007 H   0  0  0  0  0  0  0  0  0  0  0  0
   -2.1293   -0.1704    2.3196 H   0  0  0  0  0  0  0  0  0  0  0  0
   -3.5346   -0.1035   -2.0966 H   0  0  0  0  0  0  0  0  0  0  0  0
   -2.3404    0.9594   -1.1720 H   0  0  0  0  0  0  0  0  0  0  0  0
   -2.0400   -1.8217   -2.2804 H   0  0  0  0  0  0  0  0  0  0  0  0
   -1.0412   -0.3154   -2.6190 H   0  0  0  0  0  0  0  0  0  0  0  0
   -1.2029   -3.2563   -0.0164 H   0  0  0  0  0  0  0  0  0  0  0  0
   -1.0259   -1.9819    1.2479 H   0  0  0  0  0  0  0  0  0  0  0  0
   -3.2679   -2.3121    1.1827 H   0  0  0  0  0  0  0  0  0  0  0  0
   -3.2815   -2.6062   -0.6262 H   0  0  0  0  0  0  0  0  0  0  0  0
    1.1482   -0.7332    1.3246 H   0  0  0  0  0  0  0  0  0  0  0  0
    1.0191   -3.0386    0.8253 H   0  0  0  0  0  0  0  0  0  0  0  0
    2.6083   -2.5697    1.3789 H   0  0  0  0  0  0  0  0  0  0  0  0
    0.5971   -3.8492   -1.4921 H   0  0  0  0  0  0  0  0  0  0  0  0
    1.6294   -4.9746   -3.4635 H   0  0  0  0  0  0  0  0  0  0  0  0
    5.4704   -3.7590   -2.0851 H   0  0  0  0  0  0  0  0  0  0  0  0
    4.4731   -2.6757   -0.1888 H   0  0  0  0  0  0  0  0  0  0  0  0
    3.2339   -0.3904   -0.7894 H   0  0  0  0  0  0  0  0  0  0  0  0
    4.1742    2.1337   -0.3416 H   0  0  0  0  0  0  0  0  0  0  0  0
    3.8618    2.5555    2.3319 H   0  0  0  0  0  0  0  0  0  0  0  0
    6.0367    3.1384    3.0394 H   0  0  0  0  0  0  0  0  0  0  0  0
    5.9363    1.3118    2.8264 H   0  0  0  0  0  0  0  0  0  0  0  0
    5.7542   -0.0871    1.0665 H   0  0  0  0  0  0  0  0  0  0  0  0
    5.3623    0.1110   -0.6681 H   0  0  0  0  0  0  0  0  0  0  0  0
    7.4673    0.7514   -1.6995 H   0  0  0  0  0  0  0  0  0  0  0  0
    9.4849    2.2558   -1.6580 H   0  0  0  0  0  0  0  0  0  0  0  0
    9.8293    3.7752    0.2330 H   0  0  0  0  0  0  0  0  0  0  0  0
    8.1907    3.8571    2.1475 H   0  0  0  0  0  0  0  0  0  0  0  0
  1  2  1  0
  2  3  1  0
  3  4  1  0
  4  5  1  0
  5  6  2  0
  5  7  2  0
  5  8  1  0
  4  9  1  0
  9 10  2  0
 10 11  1  0
 11 12  2  0
 12 13  1  0
 13 14  2  0
 14 15  1  0
 15 16  1  0
 16 17  1  0
 17 18  1  0
 18 19  1  0
 19 20  1  0
 18 21  1  0
 21 22  2  0
 21 23  1  0
 23 24  1  0
 24 25  1  0
 25 26  2  0
 26 27  1  0
 27 28  2  0
 28 29  1  0
 29 30  2  0
 28 31  1  0
 23 32  1  0
 32 33  1  0
 33 34  2  0
 33 35  1  0
 35 36  1  0
 36 37  1  0
 37 38  1  0
 38 39  2  0
 39 40  1  0
 39 41  1  0
 41 42  2  0
 42 43  1  0
 43 44  2  0
 14  9  1  0
 20 15  1  0
 30 25  1  0
 40 35  1  0
 44 38  1  0
  1 45  1  0
  1 46  1  0
  2 47  1  0
  2 48  1  0
  3 49  1  0
  3 50  1  0
  8 51  1  0
  8 52  1  0
  8 53  1  0
 10 54  1  0
 11 55  1  0
 12 56  1  0
 13 57  1  0
 16 58  1  0
 16 59  1  0
 17 60  1  0
 17 61  1  0
 19 62  1  0
 19 63  1  0
 20 64  1  0
 20 65  1  0
 23 66  1  1
 24 67  1  0
 24 68  1  0
 26 69  1  0
 27 70  1  0
 29 71  1  0
 30 72  1  0
 32 73  1  0
 35 74  1  6
 36 75  1  0
 37 76  1  0
 37 77  1  0
 40 78  1  0
 40 79  1  0
 41 80  1  0
 42 81  1  0
 43 82  1  0
 44 83  1  0
M  END
>  <Ligand ID>  (1) 
LIG0004919

>  <Ligand>  (1) 
CHEMBL368008

>  <SMILES>  (1) 
NCCN(S(=O)(=O)C)c1ccccc1N1CCN(CC1)C(=O)[C@@H](Cc1ccc(cc1)Cl)NC(=O)[C@H]1NCc2c(C1)cccc2

>  <CID>  (1) 
10122170.0

>  <ChEMBL ID>  (1) 
nan

>  <InChiKey>  (1) 
SLQLDOVHTAKIPG-WUFINQPMSA-N

>  <InChi>  (1) 
InChI=1S/C32H39ClN6O4S/c1-44(42,43)39(15-14-34)30-9-5-4-8-29(30)37-16-18-38(19-17-37)32(41)28(20-23-10-12-26(33)13-11-23)36-31(40)27-21-24-6-2-3-7-25(24)22-35-27/h2-13,27-28,35H,14-22,34H2,1H3,(H,36,40)/t27-,28+/m0/s1

>  <IUPAC Name>  (1) 
(3S)-N-[(2R)-1-[4-[2-[2-aminoethyl(methylsulfonyl)amino]phenyl]piperazin-1-yl]-3-(4-chlorophenyl)-1-oxopropan-2-yl]-1,2,3,4-tetrahydroisoquinoline-3-carboxamide

$$$$
