
     RDKit          3D

215224  0  0  0  0  0  0  0  0999 V2000
  -11.0308    1.0405    1.1428 N   0  0  0  0  0  0  0  0  0  0  0  0
  -10.5279    0.4976   -0.0633 C   0  0  0  0  0  0  0  0  0  0  0  0
  -10.6176   -0.7689   -0.3366 N   0  0  0  0  0  0  0  0  0  0  0  0
   -9.8840    1.2897   -1.0759 N   0  0  0  0  0  0  0  0  0  0  0  0
   -8.9279    0.9204   -2.0006 C   0  0  0  0  0  0  0  0  0  0  0  0
   -7.4945    0.6542   -1.7913 C   0  0  0  0  0  0  0  0  0  0  0  0
   -6.9654   -0.3562   -0.8634 C   0  0  0  0  0  0  0  0  0  0  0  0
   -7.0611   -0.0859    0.5486 C   0  0  2  0  0  0  0  0  0  0  0  0
   -6.3076    1.0483    1.1080 N   0  0  0  0  0  0  0  0  0  0  0  0
   -5.2372    1.7092    0.5820 C   0  0  0  0  0  0  0  0  0  0  0  0
   -4.7624    1.4346   -0.5277 O   0  0  0  0  0  0  0  0  0  0  0  0
   -4.5814    2.8099    1.3492 C   0  0  1  0  0  0  0  0  0  0  0  0
   -4.2785    2.2005    2.7298 C   0  0  0  0  0  0  0  0  0  0  0  0
   -3.1942    0.8581    2.6464 S   0  0  0  0  0  0  0  0  0  0  0  0
   -3.4938   -0.6234    1.8192 C   0  0  0  0  0  0  0  0  0  0  0  0
   -4.5029   -1.5990    2.1421 C   0  0  0  0  0  0  0  0  0  0  0  0
   -4.1948   -2.3965    3.1167 O   0  0  0  0  0  0  0  0  0  0  0  0
   -5.8100   -1.9543    1.6995 N   0  0  0  0  0  0  0  0  0  0  0  0
   -6.9517   -1.1130    1.6084 C   0  0  0  0  0  0  0  0  0  0  0  0
   -6.0896   -3.4081    1.8009 C   0  0  1  0  0  0  0  0  0  0  0  0
   -7.3306   -4.0154    2.0362 C   0  0  0  0  0  0  0  0  0  0  0  0
   -8.5047   -3.9512    1.1750 C   0  0  0  0  0  0  0  0  0  0  0  0
   -8.6778   -3.7776   -0.1740 C   0  0  0  0  0  0  0  0  0  0  0  0
   -9.9685   -3.8375   -0.5268 N   0  0  0  0  0  0  0  0  0  0  0  0
  -10.6590   -4.0471    0.5815 C   0  0  0  0  0  0  0  0  0  0  0  0
   -9.8140   -4.1261    1.6672 C   0  0  0  0  0  0  0  0  0  0  0  0
  -10.3676   -4.3434    2.8975 C   0  0  0  0  0  0  0  0  0  0  0  0
  -11.7388   -4.4851    3.0760 C   0  0  0  0  0  0  0  0  0  0  0  0
  -12.5904   -4.4076    2.0028 C   0  0  0  0  0  0  0  0  0  0  0  0
  -12.0448   -4.1882    0.7607 C   0  0  0  0  0  0  0  0  0  0  0  0
   -5.5161   -4.0126    0.4687 C   0  0  0  0  0  0  0  0  0  0  0  0
   -5.2729   -3.1256   -0.3690 O   0  0  0  0  0  0  0  0  0  0  0  0
   -5.3261   -5.3872    0.3267 N   0  0  0  0  0  0  0  0  0  0  0  0
   -4.6169   -5.8538   -0.8620 C   0  0  1  0  0  0  0  0  0  0  0  0
   -4.8590   -5.1353   -2.1307 C   0  0  0  0  0  0  0  0  0  0  0  0
   -6.3063   -5.2579   -2.5256 C   0  0  0  0  0  0  0  0  0  0  0  0
   -7.0952   -5.9914   -1.8384 O   0  0  0  0  0  0  0  0  0  0  0  0
   -6.8697   -4.6008   -3.6364 N   0  0  0  0  0  0  0  0  0  0  0  0
   -3.2200   -6.1892   -0.5360 C   0  0  0  0  0  0  0  0  0  0  0  0
   -2.9581   -6.3539    0.7124 O   0  0  0  0  0  0  0  0  0  0  0  0
   -2.1526   -6.3382   -1.4240 N   0  0  0  0  0  0  0  0  0  0  0  0
   -0.8284   -6.7323   -0.9933 C   0  0  1  0  0  0  0  0  0  0  0  0
   -0.0292   -7.2965   -2.0848 C   0  0  0  0  0  0  0  0  0  0  0  0
   -0.0757   -5.5907   -0.3438 C   0  0  0  0  0  0  0  0  0  0  0  0
   -0.5844   -4.4923   -0.0713 O   0  0  0  0  0  0  0  0  0  0  0  0
    1.2870   -5.8433   -0.0550 N   0  0  0  0  0  0  0  0  0  0  0  0
    2.1744   -4.9469    0.6442 C   0  0  1  0  0  0  0  0  0  0  0  0
    3.0772   -5.6798    1.5887 C   0  0  0  0  0  0  0  0  0  0  0  0
    3.8759   -6.7169    0.9407 C   0  0  0  0  0  0  0  0  0  0  0  0
    5.0743   -6.5802    0.3095 C   0  0  0  0  0  0  0  0  0  0  0  0
    5.7735   -7.6356   -0.2715 C   0  0  0  0  0  0  0  0  0  0  0  0
    5.2420   -8.9118   -0.2200 C   0  0  0  0  0  0  0  0  0  0  0  0
    4.0151   -9.0876    0.4186 C   0  0  0  0  0  0  0  0  0  0  0  0
    3.3547   -8.0243    0.9802 C   0  0  0  0  0  0  0  0  0  0  0  0
    2.8646   -3.9382   -0.1462 C   0  0  0  0  0  0  0  0  0  0  0  0
    2.7237   -3.9148   -1.3779 O   0  0  0  0  0  0  0  0  0  0  0  0
    3.7011   -2.9855    0.5318 N   0  0  0  0  0  0  0  0  0  0  0  0
    4.2974   -1.9004   -0.3085 C   0  0  1  0  0  0  0  0  0  0  0  0
    3.6623   -0.6567    0.2512 C   0  0  0  0  0  0  0  0  0  0  0  0
    4.2490   -0.1530    1.8524 S   0  0  0  0  0  0  0  0  0  0  0  0
    5.9036    1.1697    1.7080 S   0  0  0  0  0  0  0  0  0  0  0  0
    5.2214    2.8534    1.7928 C   0  0  0  0  0  0  0  0  0  0  0  0
    4.4298    3.1855    0.5775 C   0  0  1  0  0  0  0  0  0  0  0  0
    3.3625    4.2034    0.8969 C   0  0  0  0  0  0  0  0  0  0  0  0
    2.6991    3.9334    1.9528 O   0  0  0  0  0  0  0  0  0  0  0  0
    3.0721    5.3411    0.1543 N   0  0  0  0  0  0  0  0  0  0  0  0
    1.9159    6.1461    0.6701 C   0  0  2  0  0  0  0  0  0  0  0  0
    0.7038    5.3884    0.2032 C   0  0  0  0  0  0  0  0  0  0  0  0
    1.0071    4.3169   -0.4231 O   0  0  0  0  0  0  0  0  0  0  0  0
   -0.6541    5.7457    0.3915 N   0  0  0  0  0  0  0  0  0  0  0  0
   -1.6051    4.7726   -0.1002 C   0  0  1  0  0  0  0  0  0  0  0  0
   -2.7027    4.4442    0.8528 C   0  0  0  0  0  0  0  0  0  0  0  0
   -3.0131    5.1690    1.8358 O   0  0  0  0  0  0  0  0  0  0  0  0
   -3.4152    3.2464    0.6335 N   0  0  0  0  0  0  0  0  0  0  0  0
   -2.1687    5.2511   -1.4187 C   0  0  0  0  0  0  0  0  0  0  0  0
   -2.8977    6.5034   -1.3988 C   0  0  0  0  0  0  0  0  0  0  0  0
   -4.2925    6.4023   -1.1923 C   0  0  0  0  0  0  0  0  0  0  0  0
   -5.0930    7.5182   -1.0903 C   0  0  0  0  0  0  0  0  0  0  0  0
   -4.5456    8.8013   -1.1894 C   0  0  0  0  0  0  0  0  0  0  0  0
   -3.1900    8.8931   -1.3908 C   0  0  0  0  0  0  0  0  0  0  0  0
   -2.3933    7.7701   -1.4929 C   0  0  0  0  0  0  0  0  0  0  0  0
   -1.0556    7.9520   -1.7209 C   0  0  0  0  0  0  0  0  0  0  0  0
   -0.5414    9.2224   -1.8375 C   0  0  0  0  0  0  0  0  0  0  0  0
   -1.3175   10.3683   -1.7371 C   0  0  0  0  0  0  0  0  0  0  0  0
   -2.6617   10.1631   -1.5100 C   0  0  0  0  0  0  0  0  0  0  0  0
    1.9677    7.4717    0.0272 C   0  0  0  0  0  0  0  0  0  0  0  0
    3.2405    8.1938    0.3395 C   0  0  0  0  0  0  0  0  0  0  0  0
    4.4121    8.1700   -0.3918 C   0  0  0  0  0  0  0  0  0  0  0  0
    5.2822    8.9843    0.2789 N   0  0  0  0  0  0  0  0  0  0  0  0
    4.6410    9.4733    1.3737 C   0  0  0  0  0  0  0  0  0  0  0  0
    3.3929    8.9868    1.4066 N   0  0  0  0  0  0  0  0  0  0  0  0
    5.2140    3.6740   -0.5456 N   0  0  0  0  0  0  0  0  0  0  0  0
    5.7557    2.9308   -1.5969 C   0  0  0  0  0  0  0  0  0  0  0  0
    5.5813    1.6773   -1.5896 O   0  0  0  0  0  0  0  0  0  0  0  0
    6.5247    3.4679   -2.7404 C   0  0  2  0  0  0  0  0  0  0  0  0
    8.0283    3.3884   -2.5010 C   0  0  0  0  0  0  0  0  0  0  0  0
    8.3656    4.2079   -1.2905 C   0  0  0  0  0  0  0  0  0  0  0  0
    8.4071    3.6547   -0.0214 C   0  0  0  0  0  0  0  0  0  0  0  0
    8.7311    4.5132    1.0147 C   0  0  0  0  0  0  0  0  0  0  0  0
    9.0024    5.8441    0.8448 C   0  0  0  0  0  0  0  0  0  0  0  0
    8.9609    6.4002   -0.4210 C   0  0  0  0  0  0  0  0  0  0  0  0
    8.6430    5.5629   -1.4595 C   0  0  0  0  0  0  0  0  0  0  0  0
    9.3165    6.6350    1.9241 O   0  0  0  0  0  0  0  0  0  0  0  0
    6.2095    4.8657   -2.9812 N   0  0  0  0  0  0  0  0  0  0  0  0
    5.7404   -1.9916   -0.2158 C   0  0  0  0  0  0  0  0  0  0  0  0
    6.4535   -1.1989   -0.8679 O   0  0  0  0  0  0  0  0  0  0  0  0
    6.4000   -2.9567    0.5798 N   0  0  0  0  0  0  0  0  0  0  0  0
    7.7903   -3.2307    0.7393 C   0  0  2  0  0  0  0  0  0  0  0  0
    8.6780   -2.1488    1.1137 C   0  0  0  0  0  0  0  0  0  0  0  0
    9.9105   -2.5125    1.3283 O   0  0  0  0  0  0  0  0  0  0  0  0
    8.4504   -0.7928    1.2831 N   0  0  0  0  0  0  0  0  0  0  0  0
    8.2936   -4.0845   -0.4239 C   0  0  0  0  0  0  0  0  0  0  0  0
    9.7272   -4.3817   -0.3002 C   0  0  0  0  0  0  0  0  0  0  0  0
   10.1072   -5.4683    0.4585 C   0  0  0  0  0  0  0  0  0  0  0  0
   11.4329   -5.8448    0.6116 C   0  0  0  0  0  0  0  0  0  0  0  0
   12.3918   -5.0922   -0.0277 C   0  0  0  0  0  0  0  0  0  0  0  0
   12.0683   -3.9897   -0.8034 C   0  0  0  0  0  0  0  0  0  0  0  0
   10.7335   -3.6677   -0.9144 C   0  0  0  0  0  0  0  0  0  0  0  0
   13.7346   -5.4329    0.0952 O   0  0  0  0  0  0  0  0  0  0  0  0
  -10.8094    0.6374    2.0967 H   0  0  0  0  0  0  0  0  0  0  0  0
  -11.6560    1.8837    1.0394 H   0  0  0  0  0  0  0  0  0  0  0  0
  -10.2625   -1.1797   -1.2040 H   0  0  0  0  0  0  0  0  0  0  0  0
  -10.2367    2.3066   -1.0621 H   0  0  0  0  0  0  0  0  0  0  0  0
   -9.0478    1.6508   -2.8952 H   0  0  0  0  0  0  0  0  0  0  0  0
   -9.3382   -0.0260   -2.5273 H   0  0  0  0  0  0  0  0  0  0  0  0
   -7.0651    1.6992   -1.5479 H   0  0  0  0  0  0  0  0  0  0  0  0
   -7.0882    0.4488   -2.8620 H   0  0  0  0  0  0  0  0  0  0  0  0
   -5.9410   -0.7223   -1.2038 H   0  0  0  0  0  0  0  0  0  0  0  0
   -7.5821   -1.2944   -1.0542 H   0  0  0  0  0  0  0  0  0  0  0  0
   -8.1131    0.3689    0.6505 H   0  0  0  0  0  0  0  0  0  0  0  0
   -6.6955    1.3601    2.0596 H   0  0  0  0  0  0  0  0  0  0  0  0
   -5.2243    3.7054    1.5131 H   0  0  0  0  0  0  0  0  0  0  0  0
   -5.2725    1.9980    3.2001 H   0  0  0  0  0  0  0  0  0  0  0  0
   -3.8466    3.0699    3.3315 H   0  0  0  0  0  0  0  0  0  0  0  0
   -3.3596   -0.4877    0.6855 H   0  0  0  0  0  0  0  0  0  0  0  0
   -2.4798   -1.2365    1.9586 H   0  0  0  0  0  0  0  0  0  0  0  0
   -7.9097   -1.6899    1.5402 H   0  0  0  0  0  0  0  0  0  0  0  0
   -7.1612   -0.5777    2.6199 H   0  0  0  0  0  0  0  0  0  0  0  0
   -5.2823   -3.9014    2.4496 H   0  0  0  0  0  0  0  0  0  0  0  0
   -7.1449   -5.1571    2.0995 H   0  0  0  0  0  0  0  0  0  0  0  0
   -7.6818   -3.9131    3.1572 H   0  0  0  0  0  0  0  0  0  0  0  0
   -7.8830   -3.6076   -0.8672 H   0  0  0  0  0  0  0  0  0  0  0  0
  -10.3304   -3.7343   -1.5050 H   0  0  0  0  0  0  0  0  0  0  0  0
   -9.7265   -4.4189    3.7691 H   0  0  0  0  0  0  0  0  0  0  0  0
  -12.1828   -4.6578    4.0459 H   0  0  0  0  0  0  0  0  0  0  0  0
  -13.6662   -4.5045    2.0667 H   0  0  0  0  0  0  0  0  0  0  0  0
  -12.6655   -4.1210   -0.1222 H   0  0  0  0  0  0  0  0  0  0  0  0
   -5.6847   -6.0347    1.0582 H   0  0  0  0  0  0  0  0  0  0  0  0
   -5.1433   -6.8754   -1.0439 H   0  0  0  0  0  0  0  0  0  0  0  0
   -4.3332   -5.7569   -2.9369 H   0  0  0  0  0  0  0  0  0  0  0  0
   -4.5054   -4.1148   -2.2386 H   0  0  0  0  0  0  0  0  0  0  0  0
   -7.0237   -5.1669   -4.5040 H   0  0  0  0  0  0  0  0  0  0  0  0
   -7.1501   -3.6056   -3.6797 H   0  0  0  0  0  0  0  0  0  0  0  0
   -2.3139   -6.1582   -2.4396 H   0  0  0  0  0  0  0  0  0  0  0  0
   -0.9476   -7.4664   -0.1268 H   0  0  0  0  0  0  0  0  0  0  0  0
    0.7418   -8.0007   -1.6951 H   0  0  0  0  0  0  0  0  0  0  0  0
   -0.6845   -7.7848   -2.8344 H   0  0  0  0  0  0  0  0  0  0  0  0
    0.5222   -6.5150   -2.6605 H   0  0  0  0  0  0  0  0  0  0  0  0
    1.7415   -6.7601   -0.3612 H   0  0  0  0  0  0  0  0  0  0  0  0
    1.4319   -4.3147    1.2775 H   0  0  0  0  0  0  0  0  0  0  0  0
    3.7572   -4.9761    2.1126 H   0  0  0  0  0  0  0  0  0  0  0  0
    2.4689   -6.1386    2.4260 H   0  0  0  0  0  0  0  0  0  0  0  0
    5.5317   -5.6154    0.2311 H   0  0  0  0  0  0  0  0  0  0  0  0
    6.7269   -7.4899   -0.7658 H   0  0  0  0  0  0  0  0  0  0  0  0
    5.7524   -9.7531   -0.6602 H   0  0  0  0  0  0  0  0  0  0  0  0
    3.6247  -10.0942    0.4467 H   0  0  0  0  0  0  0  0  0  0  0  0
    2.3993   -8.2202    1.4635 H   0  0  0  0  0  0  0  0  0  0  0  0
    3.8818   -3.0238    1.5518 H   0  0  0  0  0  0  0  0  0  0  0  0
    3.9310   -2.0716   -1.3642 H   0  0  0  0  0  0  0  0  0  0  0  0
    2.5397   -0.8599    0.3669 H   0  0  0  0  0  0  0  0  0  0  0  0
    3.6697    0.1361   -0.5324 H   0  0  0  0  0  0  0  0  0  0  0  0
    4.5082    2.8609    2.6523 H   0  0  0  0  0  0  0  0  0  0  0  0
    5.9942    3.5983    2.0521 H   0  0  0  0  0  0  0  0  0  0  0  0
    3.9258    2.2653    0.2753 H   0  0  0  0  0  0  0  0  0  0  0  0
    3.5817    5.6355   -0.6959 H   0  0  0  0  0  0  0  0  0  0  0  0
    1.9597    6.0929    1.7603 H   0  0  0  0  0  0  0  0  0  0  0  0
   -0.9001    6.6459    0.8502 H   0  0  0  0  0  0  0  0  0  0  0  0
   -1.0744    3.8327   -0.3259 H   0  0  0  0  0  0  0  0  0  0  0  0
   -3.0653    2.5931   -0.1271 H   0  0  0  0  0  0  0  0  0  0  0  0
   -2.7813    4.4060   -1.8415 H   0  0  0  0  0  0  0  0  0  0  0  0
   -1.3058    5.3298   -2.1122 H   0  0  0  0  0  0  0  0  0  0  0  0
   -4.7615    5.4073   -1.1080 H   0  0  0  0  0  0  0  0  0  0  0  0
   -6.1458    7.3496   -0.9293 H   0  0  0  0  0  0  0  0  0  0  0  0
   -5.2288    9.6085   -1.0952 H   0  0  0  0  0  0  0  0  0  0  0  0
   -0.3994    7.1137   -1.8365 H   0  0  0  0  0  0  0  0  0  0  0  0
    0.5274    9.4009   -2.0127 H   0  0  0  0  0  0  0  0  0  0  0  0
   -0.8778   11.3490   -1.8418 H   0  0  0  0  0  0  0  0  0  0  0  0
   -3.2853   11.0489   -1.4298 H   0  0  0  0  0  0  0  0  0  0  0  0
    1.8672    7.4126   -1.0992 H   0  0  0  0  0  0  0  0  0  0  0  0
    1.1448    8.1563    0.3215 H   0  0  0  0  0  0  0  0  0  0  0  0
    4.6637    7.6576   -1.2914 H   0  0  0  0  0  0  0  0  0  0  0  0
    6.2614    9.1739   -0.0292 H   0  0  0  0  0  0  0  0  0  0  0  0
    5.0976   10.1447    2.0886 H   0  0  0  0  0  0  0  0  0  0  0  0
    5.3869    4.7243   -0.5252 H   0  0  0  0  0  0  0  0  0  0  0  0
    6.3408    2.9278   -3.6774 H   0  0  0  0  0  0  0  0  0  0  0  0
    8.5773    3.8217   -3.3459 H   0  0  0  0  0  0  0  0  0  0  0  0
    8.2765    2.3228   -2.3758 H   0  0  0  0  0  0  0  0  0  0  0  0
    8.1924    2.6013    0.1291 H   0  0  0  0  0  0  0  0  0  0  0  0
    8.7636    4.0583    2.0079 H   0  0  0  0  0  0  0  0  0  0  0  0
    9.1764    7.4541   -0.5469 H   0  0  0  0  0  0  0  0  0  0  0  0
    8.5985    5.9482   -2.4815 H   0  0  0  0  0  0  0  0  0  0  0  0
    9.0495    7.6218    1.9759 H   0  0  0  0  0  0  0  0  0  0  0  0
    6.2948    5.4499   -2.1337 H   0  0  0  0  0  0  0  0  0  0  0  0
    5.2888    4.9977   -3.4274 H   0  0  0  0  0  0  0  0  0  0  0  0
    5.7347   -3.5628    1.1624 H   0  0  0  0  0  0  0  0  0  0  0  0
    7.8655   -3.9648    1.6286 H   0  0  0  0  0  0  0  0  0  0  0  0
    8.3966   -0.0477    0.5665 H   0  0  0  0  0  0  0  0  0  0  0  0
    8.3166   -0.4484    2.2850 H   0  0  0  0  0  0  0  0  0  0  0  0
    7.7531   -5.0576   -0.3986 H   0  0  0  0  0  0  0  0  0  0  0  0
    8.1221   -3.5581   -1.3940 H   0  0  0  0  0  0  0  0  0  0  0  0
    9.3546   -6.0661    0.9600 H   0  0  0  0  0  0  0  0  0  0  0  0
   11.7271   -6.7028    1.2115 H   0  0  0  0  0  0  0  0  0  0  0  0
   12.8669   -3.4478   -1.2755 H   0  0  0  0  0  0  0  0  0  0  0  0
   10.4590   -2.8225   -1.5044 H   0  0  0  0  0  0  0  0  0  0  0  0
   14.0614   -6.2857    0.5357 H   0  0  0  0  0  0  0  0  0  0  0  0
  1  2  1  0
  2  3  2  3
  2  4  1  0
  4  5  1  0
  5  6  1  0
  6  7  1  0
  7  8  1  0
  8  9  1  0
  9 10  1  0
 10 11  2  0
 10 12  1  0
 12 13  1  0
 13 14  1  0
 14 15  1  0
 15 16  1  0
 16 17  2  0
 16 18  1  0
 18 19  1  0
 18 20  1  0
 20 21  1  0
 21 22  1  0
 22 23  2  0
 23 24  1  0
 24 25  1  0
 25 26  2  0
 26 27  1  0
 27 28  2  0
 28 29  1  0
 29 30  2  0
 20 31  1  0
 31 32  2  0
 31 33  1  0
 33 34  1  0
 34 35  1  0
 35 36  1  0
 36 37  2  0
 36 38  1  0
 34 39  1  0
 39 40  2  0
 39 41  1  0
 41 42  1  0
 42 43  1  0
 42 44  1  0
 44 45  2  0
 44 46  1  0
 46 47  1  0
 47 48  1  0
 48 49  1  0
 49 50  2  0
 50 51  1  0
 51 52  2  0
 52 53  1  0
 53 54  2  0
 47 55  1  0
 55 56  2  0
 55 57  1  0
 57 58  1  0
 58 59  1  0
 59 60  1  0
 60 61  1  0
 61 62  1  0
 62 63  1  0
 63 64  1  0
 64 65  2  0
 64 66  1  0
 66 67  1  0
 67 68  1  0
 68 69  2  0
 68 70  1  0
 70 71  1  0
 71 72  1  0
 72 73  2  0
 72 74  1  0
 71 75  1  0
 75 76  1  0
 76 77  2  0
 77 78  1  0
 78 79  2  0
 79 80  1  0
 80 81  2  0
 81 82  1  0
 82 83  2  0
 83 84  1  0
 84 85  2  0
 67 86  1  0
 86 87  1  0
 87 88  2  0
 88 89  1  0
 89 90  1  0
 90 91  2  0
 63 92  1  0
 92 93  1  0
 93 94  2  0
 93 95  1  0
 95 96  1  0
 96 97  1  0
 97 98  2  0
 98 99  1  0
 99100  2  0
100101  1  0
101102  2  0
100103  1  0
 95104  1  0
 58105  1  0
105106  2  0
105107  1  0
107108  1  0
108109  1  0
109110  2  0
109111  1  0
108112  1  0
112113  1  0
113114  2  0
114115  1  0
115116  2  0
116117  1  0
117118  2  0
116119  1  0
 19  8  1  0
 26 22  1  0
 54 49  1  0
 81 76  1  0
 91 87  1  0
102 97  1  0
118113  1  0
 74 12  1  0
 85 80  1  0
 30 25  1  0
  1120  1  0
  1121  1  0
  3122  1  0
  4123  1  0
  5124  1  0
  5125  1  0
  6126  1  0
  6127  1  0
  7128  1  0
  7129  1  0
  8130  1  6
  9131  1  0
 12132  1  1
 13133  1  0
 13134  1  0
 15135  1  0
 15136  1  0
 19137  1  0
 19138  1  0
 20139  1  1
 21140  1  0
 21141  1  0
 23142  1  0
 24143  1  0
 27144  1  0
 28145  1  0
 29146  1  0
 30147  1  0
 33148  1  0
 34149  1  6
 35150  1  0
 35151  1  0
 38152  1  0
 38153  1  0
 41154  1  0
 42155  1  1
 43156  1  0
 43157  1  0
 43158  1  0
 46159  1  0
 47160  1  1
 48161  1  0
 48162  1  0
 50163  1  0
 51164  1  0
 52165  1  0
 53166  1  0
 54167  1  0
 57168  1  0
 58169  1  6
 59170  1  0
 59171  1  0
 62172  1  0
 62173  1  0
 63174  1  6
 66175  1  0
 67176  1  1
 70177  1  0
 71178  1  6
 74179  1  0
 75180  1  0
 75181  1  0
 77182  1  0
 78183  1  0
 79184  1  0
 82185  1  0
 83186  1  0
 84187  1  0
 85188  1  0
 86189  1  0
 86190  1  0
 88191  1  0
 89192  1  0
 90193  1  0
 92194  1  0
 95195  1  6
 96196  1  0
 96197  1  0
 98198  1  0
 99199  1  0
101200  1  0
102201  1  0
103202  1  0
104203  1  0
104204  1  0
107205  1  0
108206  1  1
111207  1  0
111208  1  0
112209  1  0
112210  1  0
114211  1  0
115212  1  0
117213  1  0
118214  1  0
119215  1  0
M  END
>  <Ligand ID>  (1) 
LIG0001146

>  <Ligand>  (1) 
CID 71606392

>  <SMILES>  (1) 
NC(=N)NCCC[C@@H]1NC(=O)[C@H]2CSCC(=O)N(C1)[C@@H](Cc1c[nH]c3c1cccc3)C(=O)N[C@@H](CC(=O)N)C(=O)N[C@@H](C)C(=O)N[C@@H](Cc1ccccc1)C(=O)N[C@@H](CSSC[C@@H](C(=O)N[C@H](C(=O)N[C@@H](C(=O)N2)Cc1cccc2c1cccc2)Cc1c[nH]cn1)NC(=O)[C@H](Cc1ccc(cc1)O)N)C(=O)N[C@H](C(=O)N)Cc1ccc(cc1)O

>  <CID>  (1) 
71606392.0

>  <ChEMBL ID>  (1) 
nan

>  <InChiKey>  (1) 
QYTCKLVMQSPBHM-XBDJTHPXSA-N

>  <InChi>  (1) 
InChI=1S/C81H96N20O15S3/c1-44-71(107)94-60(31-45-11-3-2-4-12-45)74(110)100-66(78(114)93-59(70(84)106)30-47-22-26-54(103)27-23-47)41-119-118-40-65(98-72(108)57(82)29-46-20-24-53(102)25-21-46)79(115)96-62(34-52-37-87-43-90-52)76(112)95-61(32-49-15-9-14-48-13-5-6-17-55(48)49)75(111)99-64-39-117-42-69(105)101(38-51(92-77(64)113)16-10-28-88-81(85)86)67(33-50-36-89-58-19-8-7-18-56(50)58)80(116)97-63(35-68(83)104)73(109)91-44/h2-9,11-15,17-27,36-37,43-44,51,57,59-67,89,102-103H,10,16,28-35,38-42,82H2,1H3,(H2,83,104)(H2,84,106)(H,87,90)(H,91,109)(H,92,113)(H,93,114)(H,94,107)(H,95,112)(H,96,115)(H,97,116)(H,98,108)(H,99,111)(H,100,110)(H4,85,86,88)/t44-,51-,57-,59-,60-,61+,62-,63-,64+,65-,66-,67-/m0/s1

>  <IUPAC Name>  (1) 
(2S,5S,8S,11S,14R,19R,22S,25R,28S,34S)-N-[(2S)-1-amino-3-(4-hydroxyphenyl)-1-oxopropan-2-yl]-19-[[(2S)-2-amino-3-(4-hydroxyphenyl)propanoyl]amino]-5-(2-amino-2-oxoethyl)-11-benzyl-34-(3-carbamimidamidopropyl)-22-(1H-imidazol-4-ylmethyl)-2-(1H-indol-3-ylmethyl)-8-methyl-25-(naphthalen-1-ylmethyl)-3,6,9,12,20,23,26,32,36-nonaoxo-16,17,30-trithia-1,4,7,10,13,21,24,27,35-nonazabicyclo[26.4.4]hexatriacontane-14-carboxamide

$$$$
