
     RDKit          3D

 66 69  0  0  0  0  0  0  0  0999 V2000
   -9.0836    2.2337   -2.5945 O   0  0  0  0  0  0  0  0  0  0  0  0
   -9.8112    1.1167   -1.5543 P   0  0  0  0  0  0  0  0  0  0  0  0
   -9.9776    1.6912   -0.1510 O   0  0  0  0  0  0  0  0  0  0  0  0
   -8.9606   -0.3229   -1.5170 O   0  0  0  0  0  0  0  0  0  0  0  0
   -7.6729   -0.1377   -1.0162 C   0  0  0  0  0  0  0  0  0  0  0  0
   -6.9852   -1.4868   -0.9623 C   0  0  1  0  0  0  0  0  0  0  0  0
   -5.5693   -1.3088   -0.5249 C   0  0  0  0  0  0  0  0  0  0  0  0
   -5.2339   -1.3249    0.7894 N   0  0  0  0  0  0  0  0  0  0  0  0
   -3.8937   -1.1437    0.8799 C   0  0  0  0  0  0  0  0  0  0  0  0
   -3.4013   -1.0150   -0.4005 C   0  0  0  0  0  0  0  0  0  0  0  0
   -4.4602   -1.1222   -1.2283 N   0  0  0  0  0  0  0  0  0  0  0  0
   -1.9928   -0.8078   -0.7175 C   0  0  0  0  0  0  0  0  0  0  0  0
   -1.0401   -0.7214    0.2636 C   0  0  0  0  0  0  0  0  0  0  0  0
    0.2918   -0.5314   -0.0394 C   0  0  0  0  0  0  0  0  0  0  0  0
    0.7487   -0.4167   -1.3283 C   0  0  0  0  0  0  0  0  0  0  0  0
   -0.2163   -0.5031   -2.3450 C   0  0  0  0  0  0  0  0  0  0  0  0
   -1.5550   -0.6951   -2.0252 C   0  0  0  0  0  0  0  0  0  0  0  0
    0.2075   -0.3851   -3.7682 C   0  0  0  0  0  0  0  0  0  0  0  0
    1.0983   -1.3423   -4.1470 F   0  0  0  0  0  0  0  0  0  0  0  0
    0.8042    0.8675   -3.9457 F   0  0  0  0  0  0  0  0  0  0  0  0
   -0.9098   -0.3974   -4.5494 F   0  0  0  0  0  0  0  0  0  0  0  0
    2.0340   -0.2320   -1.7243 O   0  0  0  0  0  0  0  0  0  0  0  0
    3.2186   -0.0905   -1.0500 C   0  0  0  0  0  0  0  0  0  0  0  0
    3.3106    1.1144   -0.1605 C   0  0  0  0  0  0  0  0  0  0  0  0
    4.6628    1.1137    0.5066 C   0  0  0  0  0  0  0  0  0  0  0  0
    5.7556    1.7274   -0.0770 C   0  0  0  0  0  0  0  0  0  0  0  0
    6.9709    1.6824    0.6096 C   0  0  0  0  0  0  0  0  0  0  0  0
    7.0613    1.0408    1.8333 C   0  0  0  0  0  0  0  0  0  0  0  0
    5.9404    0.4304    2.3981 C   0  0  0  0  0  0  0  0  0  0  0  0
    4.7369    0.4711    1.7241 C   0  0  0  0  0  0  0  0  0  0  0  0
    8.3045    0.9615    2.5948 C   0  0  0  0  0  0  0  0  0  0  0  0
    8.2452    0.9258    3.9911 C   0  0  0  0  0  0  0  0  0  0  0  0
    9.4062    0.8476    4.7477 C   0  0  0  0  0  0  0  0  0  0  0  0
   10.6449    0.8043    4.1165 C   0  0  0  0  0  0  0  0  0  0  0  0
   10.7277    0.8387    2.7266 C   0  0  0  0  0  0  0  0  0  0  0  0
    9.5469    0.9169    2.0027 C   0  0  0  0  0  0  0  0  0  0  0  0
   -7.6841   -2.4126   -0.1147 N   0  0  0  0  0  0  0  0  0  0  0  0
   -6.9729   -2.0391   -2.3717 C   0  0  0  0  0  0  0  0  0  0  0  0
  -11.3761    0.7892   -2.1244 O   0  0  0  0  0  0  0  0  0  0  0  0
   -9.6880    2.9939   -2.7233 H   0  0  0  0  0  0  0  0  0  0  0  0
   -7.1386    0.5653   -1.6842 H   0  0  0  0  0  0  0  0  0  0  0  0
   -7.6799    0.3268    0.0100 H   0  0  0  0  0  0  0  0  0  0  0  0
   -3.3526   -1.1134    1.8268 H   0  0  0  0  0  0  0  0  0  0  0  0
   -4.4218   -1.0683   -2.2718 H   0  0  0  0  0  0  0  0  0  0  0  0
   -1.3768   -0.8101    1.3040 H   0  0  0  0  0  0  0  0  0  0  0  0
    0.9747   -0.4865    0.7847 H   0  0  0  0  0  0  0  0  0  0  0  0
   -2.3081   -0.7637   -2.8014 H   0  0  0  0  0  0  0  0  0  0  0  0
    3.3468   -1.0105   -0.4073 H   0  0  0  0  0  0  0  0  0  0  0  0
    4.0556   -0.1211   -1.7845 H   0  0  0  0  0  0  0  0  0  0  0  0
    3.2629    2.0209   -0.8092 H   0  0  0  0  0  0  0  0  0  0  0  0
    2.5252    1.2188    0.5744 H   0  0  0  0  0  0  0  0  0  0  0  0
    5.6669    2.2270   -1.0370 H   0  0  0  0  0  0  0  0  0  0  0  0
    7.8565    2.1486    0.1921 H   0  0  0  0  0  0  0  0  0  0  0  0
    5.9669   -0.0755    3.3440 H   0  0  0  0  0  0  0  0  0  0  0  0
    3.8655   -0.0056    2.1658 H   0  0  0  0  0  0  0  0  0  0  0  0
    7.3028    0.9568    4.5269 H   0  0  0  0  0  0  0  0  0  0  0  0
    9.3308    0.8209    5.8468 H   0  0  0  0  0  0  0  0  0  0  0  0
   11.5638    0.7418    4.7150 H   0  0  0  0  0  0  0  0  0  0  0  0
   11.6847    0.8056    2.2408 H   0  0  0  0  0  0  0  0  0  0  0  0
    9.5910    0.9451    0.9103 H   0  0  0  0  0  0  0  0  0  0  0  0
   -8.5318   -1.9946    0.3506 H   0  0  0  0  0  0  0  0  0  0  0  0
   -7.0607   -2.8156    0.6243 H   0  0  0  0  0  0  0  0  0  0  0  0
   -6.2257   -2.8638   -2.3781 H   0  0  0  0  0  0  0  0  0  0  0  0
   -6.5329   -1.2447   -3.0162 H   0  0  0  0  0  0  0  0  0  0  0  0
   -7.9746   -2.3791   -2.6964 H   0  0  0  0  0  0  0  0  0  0  0  0
  -11.6228   -0.1560   -1.9284 H   0  0  0  0  0  0  0  0  0  0  0  0
  1  2  1  0
  2  3  2  0
  2  4  1  0
  4  5  1  0
  5  6  1  0
  6  7  1  0
  7  8  2  0
  8  9  1  0
  9 10  2  0
 10 11  1  0
 10 12  1  0
 12 13  2  0
 13 14  1  0
 14 15  2  0
 15 16  1  0
 16 17  2  0
 16 18  1  0
 18 19  1  0
 18 20  1  0
 18 21  1  0
 15 22  1  0
 22 23  1  0
 23 24  1  0
 24 25  1  0
 25 26  2  0
 26 27  1  0
 27 28  2  0
 28 29  1  0
 29 30  2  0
 28 31  1  0
 31 32  2  0
 32 33  1  0
 33 34  2  0
 34 35  1  0
 35 36  2  0
  6 37  1  1
  6 38  1  0
  2 39  1  0
 11  7  1  0
 17 12  1  0
 30 25  1  0
 36 31  1  0
  1 40  1  0
  5 41  1  0
  5 42  1  0
  9 43  1  0
 11 44  1  0
 13 45  1  0
 14 46  1  0
 17 47  1  0
 23 48  1  0
 23 49  1  0
 24 50  1  0
 24 51  1  0
 26 52  1  0
 27 53  1  0
 29 54  1  0
 30 55  1  0
 32 56  1  0
 33 57  1  0
 34 58  1  0
 35 59  1  0
 36 60  1  0
 37 61  1  0
 37 62  1  0
 38 63  1  0
 38 64  1  0
 38 65  1  0
 39 66  1  0
M  END
>  <Ligand ID>  (1) 
LIG0005103

>  <Ligand>  (1) 
CHEMBL1090829

>  <SMILES>  (1) 
OP(=O)(OC[C@@](c1ncc([nH]1)c1ccc(c(c1)C(F)(F)F)OCCc1ccc(cc1)c1ccccc1)(N)C)O

>  <CID>  (1) 
46885798.0

>  <ChEMBL ID>  (1) 
nan

>  <InChiKey>  (1) 
RMDMQWBLROBEJO-SANMLTNESA-N

>  <InChi>  (1) 
InChI=1S/C27H27F3N3O5P/c1-26(31,17-38-39(34,35)36)25-32-16-23(33-25)21-11-12-24(22(15-21)27(28,29)30)37-14-13-18-7-9-20(10-8-18)19-5-3-2-4-6-19/h2-12,15-16H,13-14,17,31H2,1H3,(H,32,33)(H2,34,35,36)/t26-/m0/s1

>  <IUPAC Name>  (1) 
[(2R)-2-amino-2-[5-[4-[2-(4-phenylphenyl)ethoxy]-3-(trifluoromethyl)phenyl]-1H-imidazol-2-yl]propyl] dihydrogen phosphate

$$$$
