
     RDKit          3D

 35 34  0  0  0  0  0  0  0  0999 V2000
    3.1222    1.6445    0.6282 C   0  0  0  0  0  0  0  0  0  0  0  0
    3.9260    0.8948   -0.4110 C   0  0  0  0  0  0  0  0  0  0  0  0
    3.0939   -0.3306   -0.8132 C   0  0  0  0  0  0  0  0  0  0  0  0
    2.8836   -1.1509    0.4390 C   0  0  0  0  0  0  0  0  0  0  0  0
    2.0686   -2.3809    0.1124 C   0  0  0  0  0  0  0  0  0  0  0  0
    0.7191   -1.9726   -0.4464 C   0  0  0  0  0  0  0  0  0  0  0  0
   -0.0875   -1.1370    0.5127 C   0  0  0  0  0  0  0  0  0  0  0  0
   -1.3830   -0.8214   -0.1886 C   0  0  0  0  0  0  0  0  0  0  0  0
   -1.5447   -1.2744   -1.3516 O   0  0  0  0  0  0  0  0  0  0  0  0
   -2.3703   -0.0573    0.4203 O   0  0  0  0  0  0  0  0  0  0  0  0
   -3.5523    0.2183   -0.2466 C   0  0  0  0  0  0  0  0  0  0  0  0
   -3.6692   -0.2616   -1.4200 O   0  0  0  0  0  0  0  0  0  0  0  0
   -4.6487    1.0329    0.3554 C   0  0  0  0  0  0  0  0  0  0  0  0
   -4.3534    1.4699    1.6270 O   0  0  0  0  0  0  0  0  0  0  0  0
   -4.7579    2.2622   -0.5451 C   0  0  0  0  0  0  0  0  0  0  0  0
    3.3440    1.1974    1.6357 H   0  0  0  0  0  0  0  0  0  0  0  0
    2.0539    1.5689    0.3986 H   0  0  0  0  0  0  0  0  0  0  0  0
    3.4664    2.7132    0.6908 H   0  0  0  0  0  0  0  0  0  0  0  0
    4.8656    0.5392    0.0495 H   0  0  0  0  0  0  0  0  0  0  0  0
    4.1321    1.5307   -1.2930 H   0  0  0  0  0  0  0  0  0  0  0  0
    3.5999   -0.8774   -1.6119 H   0  0  0  0  0  0  0  0  0  0  0  0
    2.1397    0.0619   -1.2197 H   0  0  0  0  0  0  0  0  0  0  0  0
    3.8558   -1.4536    0.8587 H   0  0  0  0  0  0  0  0  0  0  0  0
    2.3254   -0.5057    1.1631 H   0  0  0  0  0  0  0  0  0  0  0  0
    2.6051   -2.9127   -0.7061 H   0  0  0  0  0  0  0  0  0  0  0  0
    1.8720   -3.0096    0.9785 H   0  0  0  0  0  0  0  0  0  0  0  0
    0.8064   -1.4611   -1.4195 H   0  0  0  0  0  0  0  0  0  0  0  0
    0.1038   -2.8909   -0.6709 H   0  0  0  0  0  0  0  0  0  0  0  0
   -0.2736   -1.6498    1.4596 H   0  0  0  0  0  0  0  0  0  0  0  0
    0.3846   -0.1342    0.6670 H   0  0  0  0  0  0  0  0  0  0  0  0
   -5.5969    0.4456    0.3099 H   0  0  0  0  0  0  0  0  0  0  0  0
   -4.7768    0.9734    2.3619 H   0  0  0  0  0  0  0  0  0  0  0  0
   -4.5847    1.9881   -1.6140 H   0  0  0  0  0  0  0  0  0  0  0  0
   -4.0170    3.0180   -0.2078 H   0  0  0  0  0  0  0  0  0  0  0  0
   -5.7519    2.7228   -0.5028 H   0  0  0  0  0  0  0  0  0  0  0  0
  1  2  1  0
  2  3  1  0
  3  4  1  0
  4  5  1  0
  5  6  1  0
  6  7  1  0
  7  8  1  0
  8  9  2  0
  8 10  1  0
 10 11  1  0
 11 12  2  0
 11 13  1  0
 13 14  1  0
 13 15  1  0
  1 16  1  0
  1 17  1  0
  1 18  1  0
  2 19  1  0
  2 20  1  0
  3 21  1  0
  3 22  1  0
  4 23  1  0
  4 24  1  0
  5 25  1  0
  5 26  1  0
  6 27  1  0
  6 28  1  0
  7 29  1  0
  7 30  1  0
 13 31  1  0
 14 32  1  0
 15 33  1  0
 15 34  1  0
 15 35  1  0
M  END
>  <Ligand ID>  (1) 
LIG0001050

>  <Ligand>  (1) 
Butylbutyryllactate

>  <SMILES>  (1) 
CCCCCCCC(=O)OC(=O)C(O)C

>  <CID>  (1) 
18362559.0

>  <ChEMBL ID>  (1) 
nan

>  <InChiKey>  (1) 
SPRJWMSXOLZOIO-UHFFFAOYSA-N

>  <InChi>  (1) 
InChI=1S/C11H20O4/c1-3-4-5-6-7-8-10(13)15-11(14)9(2)12/h9,12H,3-8H2,1-2H3

>  <IUPAC Name>  (1) 
2-hydroxypropanoyl octanoate

$$$$
