
     RDKit          3D

 50 53  0  0  0  0  0  0  0  0999 V2000
    5.5973   -1.6148   -0.2282 C   0  0  0  0  0  0  0  0  0  0  0  0
    5.1604   -0.1964   -0.5367 C   0  0  0  0  0  0  0  0  0  0  0  0
    3.7636   -0.0768   -0.1565 N   0  0  0  0  0  0  0  0  0  0  0  0
    2.7339    0.1899   -1.0973 C   0  0  0  0  0  0  0  0  0  0  0  0
    3.0791    0.3216   -2.2969 O   0  0  0  0  0  0  0  0  0  0  0  0
    1.3378    0.3045   -0.6809 C   0  0  0  0  0  0  0  0  0  0  0  0
    0.7227    1.5180   -0.9171 C   0  0  0  0  0  0  0  0  0  0  0  0
   -0.5862    1.6415   -0.5311 C   0  0  0  0  0  0  0  0  0  0  0  0
   -1.2569    0.5862    0.0710 C   0  0  0  0  0  0  0  0  0  0  0  0
   -0.6587   -0.5979    0.3019 N   0  0  0  0  0  0  0  0  0  0  0  0
    0.6421   -0.7218   -0.0811 C   0  0  0  0  0  0  0  0  0  0  0  0
    1.2610   -1.8253    0.1160 N   0  0  0  0  0  0  0  0  0  0  0  0
   -1.4072   -1.6304    0.9237 C   0  0  0  0  0  0  0  0  0  0  0  0
   -0.8472   -3.0232    0.8199 C   0  0  0  0  0  0  0  0  0  0  0  0
   -2.1214   -3.8706    1.0398 C   0  0  0  0  0  0  0  0  0  0  0  0
   -3.0187   -3.1978    0.0251 C   0  0  0  0  0  0  0  0  0  0  0  0
   -2.7837   -1.7303    0.3065 C   0  0  0  0  0  0  0  0  0  0  0  0
   -2.5458    0.8345    0.4076 N   0  0  0  0  0  0  0  0  0  0  0  0
   -3.1398    2.0301    0.1728 C   0  0  0  0  0  0  0  0  0  0  0  0
   -2.4844    3.0484   -0.4111 N   0  0  0  0  0  0  0  0  0  0  0  0
   -1.2050    2.8590   -0.7656 C   0  0  0  0  0  0  0  0  0  0  0  0
   -0.5976    3.8248   -1.3148 O   0  0  0  0  0  0  0  0  0  0  0  0
   -3.1129    4.2122   -0.6235 C   0  0  0  0  0  0  0  0  0  0  0  0
   -4.4296    4.3567   -0.2409 C   0  0  0  0  0  0  0  0  0  0  0  0
   -5.1417    3.3399    0.3612 C   0  0  0  0  0  0  0  0  0  0  0  0
   -4.4698    2.1510    0.5683 C   0  0  0  0  0  0  0  0  0  0  0  0
    5.9944    0.7986    0.2325 C   0  0  0  0  0  0  0  0  0  0  0  0
    6.5506   -1.8380   -0.7565 H   0  0  0  0  0  0  0  0  0  0  0  0
    5.7633   -1.7488    0.8506 H   0  0  0  0  0  0  0  0  0  0  0  0
    4.8425   -2.3500   -0.5564 H   0  0  0  0  0  0  0  0  0  0  0  0
    5.2186   -0.0265   -1.6265 H   0  0  0  0  0  0  0  0  0  0  0  0
    3.5628   -0.2009    0.8703 H   0  0  0  0  0  0  0  0  0  0  0  0
    1.2315    2.3478   -1.3842 H   0  0  0  0  0  0  0  0  0  0  0  0
    2.2465   -1.9042   -0.1784 H   0  0  0  0  0  0  0  0  0  0  0  0
   -1.5333   -1.3748    2.0100 H   0  0  0  0  0  0  0  0  0  0  0  0
   -0.1524   -3.2091    1.6422 H   0  0  0  0  0  0  0  0  0  0  0  0
   -0.5290   -3.3174   -0.1806 H   0  0  0  0  0  0  0  0  0  0  0  0
   -1.8954   -4.9142    0.7424 H   0  0  0  0  0  0  0  0  0  0  0  0
   -2.5273   -3.7673    2.0427 H   0  0  0  0  0  0  0  0  0  0  0  0
   -4.0817   -3.4845    0.1535 H   0  0  0  0  0  0  0  0  0  0  0  0
   -2.6327   -3.4566   -0.9842 H   0  0  0  0  0  0  0  0  0  0  0  0
   -2.8474   -1.2333   -0.6850 H   0  0  0  0  0  0  0  0  0  0  0  0
   -3.5603   -1.3237    1.0163 H   0  0  0  0  0  0  0  0  0  0  0  0
   -2.5790    5.0326   -1.0960 H   0  0  0  0  0  0  0  0  0  0  0  0
   -4.9405    5.2850   -0.4074 H   0  0  0  0  0  0  0  0  0  0  0  0
   -6.1815    3.4701    0.6573 H   0  0  0  0  0  0  0  0  0  0  0  0
   -4.9977    1.3109    1.0455 H   0  0  0  0  0  0  0  0  0  0  0  0
    5.3451    1.2864    1.0059 H   0  0  0  0  0  0  0  0  0  0  0  0
    6.3773    1.5835   -0.4182 H   0  0  0  0  0  0  0  0  0  0  0  0
    6.8342    0.3013    0.7718 H   0  0  0  0  0  0  0  0  0  0  0  0
  1  2  1  0
  2  3  1  0
  3  4  1  0
  4  5  2  0
  4  6  1  0
  6  7  2  0
  7  8  1  0
  8  9  2  0
  9 10  1  0
 10 11  1  0
 11 12  2  3
 10 13  1  0
 13 14  1  0
 14 15  1  0
 15 16  1  0
 16 17  1  0
  9 18  1  0
 18 19  2  0
 19 20  1  0
 20 21  1  0
 21 22  2  0
 20 23  1  0
 23 24  2  0
 24 25  1  0
 25 26  2  0
  2 27  1  0
 11  6  1  0
 17 13  1  0
 26 19  1  0
 21  8  1  0
  1 28  1  0
  1 29  1  0
  1 30  1  0
  2 31  1  0
  3 32  1  0
  7 33  1  0
 12 34  1  0
 13 35  1  0
 14 36  1  0
 14 37  1  0
 15 38  1  0
 15 39  1  0
 16 40  1  0
 16 41  1  0
 17 42  1  0
 17 43  1  0
 23 44  1  0
 24 45  1  0
 25 46  1  0
 26 47  1  0
 27 48  1  0
 27 49  1  0
 27 50  1  0
M  END
>  <Ligand ID>  (1) 
LIG0003485

>  <Ligand>  (1) 
MLS-0437217.0001

>  <SMILES>  (1) 
CC(NC(=O)c1cc2c(n(c1=N)C1CCCC1)nc1n(c2=O)cccc1)C

>  <CID>  (1) 
3785326.0

>  <ChEMBL ID>  (1) 
nan

>  <InChiKey>  (1) 
LCXWTFPJLNYDHR-UHFFFAOYSA-N

>  <InChi>  (1) 
InChI=1S/C20H23N5O2/c1-12(2)22-19(26)14-11-15-18(25(17(14)21)13-7-3-4-8-13)23-16-9-5-6-10-24(16)20(15)27/h5-6,9-13,21H,3-4,7-8H2,1-2H3,(H,22,26)

>  <IUPAC Name>  (1) 
7-cyclopentyl-6-imino-2-oxo-N-propan-2-yl-1,7,9-triazatricyclo[8.4.0.03,8]tetradeca-3(8),4,9,11,13-pentaene-5-carboxamide

$$$$
