
     RDKit          3D

 30 32  0  0  0  0  0  0  0  0999 V2000
    4.1637    0.4223    0.7507 C   0  0  0  0  0  0  0  0  0  0  0  0
    3.5244    0.2518   -0.5136 O   0  0  0  0  0  0  0  0  0  0  0  0
    2.2223    0.6493   -0.6370 C   0  0  0  0  0  0  0  0  0  0  0  0
    1.9362    1.9480   -1.0327 C   0  0  0  0  0  0  0  0  0  0  0  0
    3.2663    3.0513   -1.3660 Cl  0  0  0  0  0  0  0  0  0  0  0  0
    0.6081    2.3637   -1.1616 C   0  0  0  0  0  0  0  0  0  0  0  0
   -0.4252    1.4623   -0.8892 C   0  0  0  0  0  0  0  0  0  0  0  0
   -0.1506    0.1568   -0.4915 C   0  0  0  0  0  0  0  0  0  0  0  0
    1.1897   -0.2279   -0.3719 C   0  0  0  0  0  0  0  0  0  0  0  0
    1.2380   -1.6420    0.0584 C   0  0  0  0  0  0  0  0  0  0  0  0
   -0.1009   -1.7801    0.7968 C   0  0  0  0  0  0  0  0  0  0  0  0
   -0.9987   -0.9998   -0.1411 C   0  0  0  0  0  0  0  0  0  0  0  0
   -2.3002   -0.6488    0.4366 C   0  0  0  0  0  0  0  0  0  0  0  0
   -2.6165   -0.4669    1.7380 N   0  0  0  0  0  0  0  0  0  0  0  0
   -3.9255   -0.1535    1.8420 C   0  0  0  0  0  0  0  0  0  0  0  0
   -4.4316   -0.1437    0.5443 C   0  0  0  0  0  0  0  0  0  0  0  0
   -3.4306   -0.4469   -0.2997 N   0  0  0  0  0  0  0  0  0  0  0  0
    5.2465    0.2081    0.6653 H   0  0  0  0  0  0  0  0  0  0  0  0
    3.6324   -0.2295    1.4718 H   0  0  0  0  0  0  0  0  0  0  0  0
    4.0744    1.4954    1.0205 H   0  0  0  0  0  0  0  0  0  0  0  0
    0.3772    3.3753   -1.4699 H   0  0  0  0  0  0  0  0  0  0  0  0
   -1.4246    1.8206   -1.0001 H   0  0  0  0  0  0  0  0  0  0  0  0
    1.2021   -2.3032   -0.8327 H   0  0  0  0  0  0  0  0  0  0  0  0
    2.0964   -1.9078    0.6773 H   0  0  0  0  0  0  0  0  0  0  0  0
   -0.3445   -2.8726    0.7619 H   0  0  0  0  0  0  0  0  0  0  0  0
   -0.0541   -1.3674    1.8062 H   0  0  0  0  0  0  0  0  0  0  0  0
   -1.1089   -1.6244   -1.0603 H   0  0  0  0  0  0  0  0  0  0  0  0
   -4.4769    0.0509    2.7558 H   0  0  0  0  0  0  0  0  0  0  0  0
   -5.4481    0.0665    0.2257 H   0  0  0  0  0  0  0  0  0  0  0  0
   -3.5409   -0.5079   -1.3413 H   0  0  0  0  0  0  0  0  0  0  0  0
  1  2  1  0
  2  3  1  0
  3  4  2  0
  4  5  1  0
  4  6  1  0
  6  7  2  0
  7  8  1  0
  8  9  2  0
  9 10  1  0
 10 11  1  0
 11 12  1  0
 12 13  1  0
 13 14  2  0
 14 15  1  0
 15 16  2  0
 16 17  1  0
  9  3  1  0
 17 13  1  0
 12  8  1  0
  1 18  1  0
  1 19  1  0
  1 20  1  0
  6 21  1  0
  7 22  1  0
 10 23  1  0
 10 24  1  0
 11 25  1  0
 11 26  1  0
 12 27  1  0
 15 28  1  0
 16 29  1  0
 17 30  1  0
M  END
>  <Ligand ID>  (1) 
LIG0004761

>  <Ligand>  (1) 
CHEMBL255937

>  <SMILES>  (1) 
COc1c(Cl)ccc2c1CCC2c1ncc[nH]1

>  <CID>  (1) 
44449248.0

>  <ChEMBL ID>  (1) 
nan

>  <InChiKey>  (1) 
WOZZEGNZSHRTMV-UHFFFAOYSA-N

>  <InChi>  (1) 
InChI=1S/C13H13ClN2O/c1-17-12-9-2-3-10(13-15-6-7-16-13)8(9)4-5-11(12)14/h4-7,10H,2-3H2,1H3,(H,15,16)

>  <IUPAC Name>  (1) 
2-(5-chloro-4-methoxy-2,3-dihydro-1H-inden-1-yl)-1H-imidazole

$$$$
