
     RDKit          3D

 60 63  0  0  0  0  0  0  0  0999 V2000
    7.9164    0.3974    2.0294 F   0  0  0  0  0  0  0  0  0  0  0  0
    6.9693   -0.5804    1.9459 C   0  0  0  0  0  0  0  0  0  0  0  0
    7.1832   -1.7465    2.6482 C   0  0  0  0  0  0  0  0  0  0  0  0
    6.2202   -2.7359    2.5609 C   0  0  0  0  0  0  0  0  0  0  0  0
    5.0930   -2.5373    1.7902 C   0  0  0  0  0  0  0  0  0  0  0  0
    4.8691   -1.3671    1.0799 C   0  0  0  0  0  0  0  0  0  0  0  0
    5.8524   -0.3761    1.1786 C   0  0  0  0  0  0  0  0  0  0  0  0
    3.6482   -1.1655    0.2518 C   0  0  0  0  0  0  0  0  0  0  0  0
    2.5472   -0.5520    1.0454 C   0  0  1  0  0  0  0  0  0  0  0  0
    2.8455    0.7900    1.6347 C   0  0  0  0  0  0  0  0  0  0  0  0
    2.8836    1.9358    0.6987 C   0  0  0  0  0  0  0  0  0  0  0  0
    1.5818    2.3213    0.0695 C   0  0  0  0  0  0  0  0  0  0  0  0
    1.3827    1.4017   -1.1454 C   0  0  0  0  0  0  0  0  0  0  0  0
    0.6733    0.2185   -0.6270 C   0  0  0  0  0  0  0  0  0  0  0  0
    1.2527   -0.6394    0.3380 C   0  0  0  0  0  0  0  0  0  0  0  0
    0.3520   -1.6126    0.5349 N   0  0  0  0  0  0  0  0  0  0  0  0
   -0.6943   -1.4055   -0.2181 N   0  0  0  0  0  0  0  0  0  0  0  0
   -0.5567   -0.2676   -0.9730 C   0  0  0  0  0  0  0  0  0  0  0  0
   -1.6225    0.1897   -1.8190 C   0  0  0  0  0  0  0  0  0  0  0  0
   -1.7848    1.3301   -2.4130 C   0  0  0  0  0  0  0  0  0  0  0  0
   -3.2063    1.6490   -3.4205 S   0  0  0  0  0  0  0  0  0  0  0  0
   -2.9326    1.3458   -4.8444 O   0  0  0  0  0  0  0  0  0  0  0  0
   -3.5321    3.1057   -3.2537 O   0  0  0  0  0  0  0  0  0  0  0  0
   -4.5576    0.7712   -2.8046 N   0  0  0  0  0  0  0  0  0  0  0  0
   -4.8719    1.1875   -1.4756 C   0  0  2  0  0  0  0  0  0  0  0  0
   -4.8023    0.0981   -0.4676 C   0  0  0  0  0  0  0  0  0  0  0  0
   -4.1949    0.2400    0.7614 C   0  0  0  0  0  0  0  0  0  0  0  0
   -4.1573   -0.8083    1.6660 C   0  0  0  0  0  0  0  0  0  0  0  0
   -4.7343   -2.0462    1.3631 C   0  0  0  0  0  0  0  0  0  0  0  0
   -5.3407   -2.1772    0.1278 C   0  0  0  0  0  0  0  0  0  0  0  0
   -5.3803   -1.1384   -0.7738 C   0  0  0  0  0  0  0  0  0  0  0  0
   -6.2589    1.7827   -1.3560 C   0  0  0  0  0  0  0  0  0  0  0  0
    8.0834   -1.8511    3.2370 H   0  0  0  0  0  0  0  0  0  0  0  0
    6.3704   -3.6621    3.1069 H   0  0  0  0  0  0  0  0  0  0  0  0
    4.3238   -3.3021    1.7079 H   0  0  0  0  0  0  0  0  0  0  0  0
    5.7372    0.5619    0.6476 H   0  0  0  0  0  0  0  0  0  0  0  0
    3.8848   -0.6983   -0.7074 H   0  0  0  0  0  0  0  0  0  0  0  0
    3.3060   -2.2067   -0.0041 H   0  0  0  0  0  0  0  0  0  0  0  0
    2.4310   -1.2348    1.9561 H   0  0  0  0  0  0  0  0  0  0  0  0
    3.8164    0.7136    2.1438 H   0  0  0  0  0  0  0  0  0  0  0  0
    2.0900    0.9985    2.4182 H   0  0  0  0  0  0  0  0  0  0  0  0
    3.2411    2.8252    1.2795 H   0  0  0  0  0  0  0  0  0  0  0  0
    3.6161    1.8263   -0.1273 H   0  0  0  0  0  0  0  0  0  0  0  0
    1.7189    3.3322   -0.3758 H   0  0  0  0  0  0  0  0  0  0  0  0
    0.7161    2.2692    0.7672 H   0  0  0  0  0  0  0  0  0  0  0  0
    2.4306    1.0151   -1.4176 H   0  0  0  0  0  0  0  0  0  0  0  0
    0.9617    1.8805   -2.0047 H   0  0  0  0  0  0  0  0  0  0  0  0
    0.4508   -2.4161    1.1815 H   0  0  0  0  0  0  0  0  0  0  0  0
   -2.4371   -0.5425   -2.0097 H   0  0  0  0  0  0  0  0  0  0  0  0
   -1.0962    2.1074   -2.2991 H   0  0  0  0  0  0  0  0  0  0  0  0
   -4.5021   -0.2441   -2.9585 H   0  0  0  0  0  0  0  0  0  0  0  0
   -4.1574    1.9792   -1.1695 H   0  0  0  0  0  0  0  0  0  0  0  0
   -3.7408    1.1893    1.0193 H   0  0  0  0  0  0  0  0  0  0  0  0
   -3.6747   -0.6869    2.6356 H   0  0  0  0  0  0  0  0  0  0  0  0
   -4.7143   -2.8752    2.0570 H   0  0  0  0  0  0  0  0  0  0  0  0
   -5.8149   -3.1225   -0.1776 H   0  0  0  0  0  0  0  0  0  0  0  0
   -5.8700   -1.2891   -1.7363 H   0  0  0  0  0  0  0  0  0  0  0  0
   -7.0421    0.9982   -1.4150 H   0  0  0  0  0  0  0  0  0  0  0  0
   -6.4410    2.6201   -2.0513 H   0  0  0  0  0  0  0  0  0  0  0  0
   -6.3309    2.2058   -0.3283 H   0  0  0  0  0  0  0  0  0  0  0  0
  1  2  1  0
  2  3  2  0
  3  4  1  0
  4  5  2  0
  5  6  1  0
  6  7  2  0
  6  8  1  0
  8  9  1  0
  9 10  1  0
 10 11  1  0
 11 12  1  0
 12 13  1  0
 13 14  1  0
 14 15  2  0
 15 16  1  0
 16 17  1  0
 17 18  2  0
 18 19  1  0
 19 20  2  0
 20 21  1  0
 21 22  2  0
 21 23  2  0
 21 24  1  0
 24 25  1  0
 25 26  1  0
 26 27  2  0
 27 28  1  0
 28 29  2  0
 29 30  1  0
 30 31  2  0
 25 32  1  0
  7  2  1  0
 15  9  1  0
 31 26  1  0
 18 14  1  0
  3 33  1  0
  4 34  1  0
  5 35  1  0
  7 36  1  0
  8 37  1  0
  8 38  1  0
  9 39  1  1
 10 40  1  0
 10 41  1  0
 11 42  1  0
 11 43  1  0
 12 44  1  0
 12 45  1  0
 13 46  1  0
 13 47  1  0
 16 48  1  0
 19 49  1  0
 20 50  1  0
 24 51  1  0
 25 52  1  1
 27 53  1  0
 28 54  1  0
 29 55  1  0
 30 56  1  0
 31 57  1  0
 32 58  1  0
 32 59  1  0
 32 60  1  0
M  END
>  <Ligand ID>  (1) 
LIG0005198

>  <Ligand>  (1) 
CHEMBL3233029

>  <SMILES>  (1) 
Fc1cccc(c1)C[C@H]1CCCCc2c1[nH]nc2/C=C/S(=O)(=O)N[C@H](c1ccccc1)C

>  <CID>  (1) 
25070947.0

>  <ChEMBL ID>  (1) 
nan

>  <InChiKey>  (1) 
ZJNQGLZHOIOWFU-SGERCBKXSA-N

>  <InChi>  (1) 
InChI=1S/C25H28FN3O2S/c1-18(20-9-3-2-4-10-20)29-32(30,31)15-14-24-23-13-6-5-11-21(25(23)28-27-24)16-19-8-7-12-22(26)17-19/h2-4,7-10,12,14-15,17-18,21,29H,5-6,11,13,16H2,1H3,(H,27,28)/b15-14+/t18-,21+/m0/s1

>  <IUPAC Name>  (1) 
(E)-2-[(8R)-8-[(3-fluorophenyl)methyl]-1,4,5,6,7,8-hexahydrocyclohepta[c]pyrazol-3-yl]-N-[(1S)-1-phenylethyl]ethenesulfonamide

$$$$
