
     RDKit          3D

 74 77  0  0  0  0  0  0  0  0999 V2000
   -2.5109    3.0654    0.1146 N   0  0  0  0  0  0  0  0  0  0  0  0
   -2.4403    1.7390    0.6995 C   0  0  2  0  0  0  0  0  0  0  0  0
   -1.6547    0.8630   -0.1572 C   0  0  0  0  0  0  0  0  0  0  0  0
   -1.3102    1.2878   -1.2942 O   0  0  0  0  0  0  0  0  0  0  0  0
   -1.2213   -0.4539    0.1725 N   0  0  0  0  0  0  0  0  0  0  0  0
   -0.4102   -1.2028   -0.8007 C   0  0  2  0  0  0  0  0  0  0  0  0
   -0.9308   -2.5805   -1.0753 C   0  0  0  0  0  0  0  0  0  0  0  0
   -0.7327   -3.5037    0.1284 C   0  0  0  0  0  0  0  0  0  0  0  0
    0.7143   -3.7059    0.2306 N   0  0  0  0  0  0  0  0  0  0  0  0
    1.4774   -2.4990    0.2843 C   0  0  0  0  0  0  0  0  0  0  0  0
    0.9584   -1.3310   -0.2086 C   0  0  0  0  0  0  0  0  0  0  0  0
    1.7319   -0.1836   -0.1435 C   0  0  0  0  0  0  0  0  0  0  0  0
    3.0168   -0.1983    0.4106 C   0  0  0  0  0  0  0  0  0  0  0  0
    3.7426    1.0752    0.4352 C   0  0  0  0  0  0  0  0  0  0  0  0
    4.5421    1.3609   -0.7935 C   0  0  0  0  0  0  0  0  0  0  0  0
    5.6061    0.3783   -1.1231 C   0  0  0  0  0  0  0  0  0  0  0  0
    7.0060    0.9217   -0.8784 C   0  0  0  0  0  0  0  0  0  0  0  0
    7.0407    1.7163    0.3959 C   0  0  0  0  0  0  0  0  0  0  0  0
    6.0887    2.8760    0.3919 C   0  0  0  0  0  0  0  0  0  0  0  0
    5.0636    2.7846   -0.7048 C   0  0  0  0  0  0  0  0  0  0  0  0
    3.4992   -1.3930    0.8951 C   0  0  0  0  0  0  0  0  0  0  0  0
    2.7326   -2.5280    0.8297 C   0  0  0  0  0  0  0  0  0  0  0  0
    1.2792   -4.9972    0.2458 C   0  0  0  0  0  0  0  0  0  0  0  0
    2.4850   -5.2912    0.2526 O   0  0  0  0  0  0  0  0  0  0  0  0
    0.3106   -6.1508    0.2551 C   0  0  0  0  0  0  0  0  0  0  0  0
   -3.7640    1.2977    1.1717 C   0  0  0  0  0  0  0  0  0  0  0  0
   -4.8684    1.2119    0.2315 C   0  0  0  0  0  0  0  0  0  0  0  0
   -5.5738    2.3413   -0.1716 C   0  0  0  0  0  0  0  0  0  0  0  0
   -5.3139    3.6990    0.3531 C   0  0  0  0  0  0  0  0  0  0  0  0
   -6.6247    2.2467   -1.0958 C   0  0  0  0  0  0  0  0  0  0  0  0
   -7.0086    1.0457   -1.6439 C   0  0  0  0  0  0  0  0  0  0  0  0
   -6.3138   -0.0716   -1.2452 C   0  0  0  0  0  0  0  0  0  0  0  0
   -5.2777    0.0112   -0.3364 C   0  0  0  0  0  0  0  0  0  0  0  0
   -4.6225   -1.2905    0.0201 C   0  0  0  0  0  0  0  0  0  0  0  0
   -8.0537    1.0235   -2.5506 O   0  0  0  0  0  0  0  0  0  0  0  0
   -1.6863    3.1662   -0.5277 H   0  0  0  0  0  0  0  0  0  0  0  0
   -2.4727    3.7795    0.8727 H   0  0  0  0  0  0  0  0  0  0  0  0
   -1.7516    1.9109    1.6114 H   0  0  0  0  0  0  0  0  0  0  0  0
   -1.4905   -0.8526    1.0944 H   0  0  0  0  0  0  0  0  0  0  0  0
   -0.3168   -0.6362   -1.7449 H   0  0  0  0  0  0  0  0  0  0  0  0
   -0.2484   -3.0060   -1.8602 H   0  0  0  0  0  0  0  0  0  0  0  0
   -1.9279   -2.6376   -1.4999 H   0  0  0  0  0  0  0  0  0  0  0  0
   -1.1678   -3.0330    1.0049 H   0  0  0  0  0  0  0  0  0  0  0  0
   -1.1784   -4.4782   -0.1473 H   0  0  0  0  0  0  0  0  0  0  0  0
    1.3283    0.7415   -0.5315 H   0  0  0  0  0  0  0  0  0  0  0  0
    3.0604    1.9311    0.6758 H   0  0  0  0  0  0  0  0  0  0  0  0
    4.4813    1.0805    1.2913 H   0  0  0  0  0  0  0  0  0  0  0  0
    3.8142    1.3667   -1.6477 H   0  0  0  0  0  0  0  0  0  0  0  0
    5.5955    0.1176   -2.2246 H   0  0  0  0  0  0  0  0  0  0  0  0
    5.5470   -0.5958   -0.6147 H   0  0  0  0  0  0  0  0  0  0  0  0
    7.7354    0.1068   -0.8109 H   0  0  0  0  0  0  0  0  0  0  0  0
    7.3329    1.6019   -1.6964 H   0  0  0  0  0  0  0  0  0  0  0  0
    6.8764    1.0388    1.2835 H   0  0  0  0  0  0  0  0  0  0  0  0
    8.0607    2.1475    0.5329 H   0  0  0  0  0  0  0  0  0  0  0  0
    5.5632    2.9189    1.3628 H   0  0  0  0  0  0  0  0  0  0  0  0
    6.6149    3.8574    0.2400 H   0  0  0  0  0  0  0  0  0  0  0  0
    5.4171    3.1378   -1.6860 H   0  0  0  0  0  0  0  0  0  0  0  0
    4.2054    3.4185   -0.4202 H   0  0  0  0  0  0  0  0  0  0  0  0
    4.4847   -1.4329    1.3324 H   0  0  0  0  0  0  0  0  0  0  0  0
    3.1351   -3.4439    1.2251 H   0  0  0  0  0  0  0  0  0  0  0  0
    0.8437   -7.0520    0.5702 H   0  0  0  0  0  0  0  0  0  0  0  0
   -0.4280   -5.9163    1.0735 H   0  0  0  0  0  0  0  0  0  0  0  0
   -0.1506   -6.2438   -0.7398 H   0  0  0  0  0  0  0  0  0  0  0  0
   -3.5981    0.3284    1.7366 H   0  0  0  0  0  0  0  0  0  0  0  0
   -4.1233    1.9740    2.0117 H   0  0  0  0  0  0  0  0  0  0  0  0
   -6.3411    4.1575    0.5169 H   0  0  0  0  0  0  0  0  0  0  0  0
   -4.8632    4.3742   -0.4016 H   0  0  0  0  0  0  0  0  0  0  0  0
   -4.8518    3.7429    1.3415 H   0  0  0  0  0  0  0  0  0  0  0  0
   -7.1742    3.1448   -1.4082 H   0  0  0  0  0  0  0  0  0  0  0  0
   -6.6234   -1.0279   -1.6840 H   0  0  0  0  0  0  0  0  0  0  0  0
   -4.5267   -1.3264    1.1227 H   0  0  0  0  0  0  0  0  0  0  0  0
   -5.2899   -2.1364   -0.2610 H   0  0  0  0  0  0  0  0  0  0  0  0
   -3.7002   -1.4460   -0.5398 H   0  0  0  0  0  0  0  0  0  0  0  0
   -8.8484    1.6567   -2.4014 H   0  0  0  0  0  0  0  0  0  0  0  0
  1  2  1  0
  2  3  1  0
  3  4  2  0
  3  5  1  0
  5  6  1  0
  6  7  1  0
  7  8  1  0
  8  9  1  0
  9 10  1  0
 10 11  2  0
 11 12  1  0
 12 13  2  0
 13 14  1  0
 14 15  1  0
 15 16  1  0
 16 17  1  0
 17 18  1  0
 18 19  1  0
 19 20  1  0
 13 21  1  0
 21 22  2  0
  9 23  1  0
 23 24  2  0
 23 25  1  0
  2 26  1  0
 26 27  1  0
 27 28  2  0
 28 29  1  0
 28 30  1  0
 30 31  2  0
 31 32  1  0
 32 33  2  0
 33 34  1  0
 31 35  1  0
 11  6  1  0
 20 15  1  0
 33 27  1  0
 22 10  1  0
  1 36  1  0
  1 37  1  0
  2 38  1  1
  5 39  1  0
  6 40  1  6
  7 41  1  0
  7 42  1  0
  8 43  1  0
  8 44  1  0
 12 45  1  0
 14 46  1  0
 14 47  1  0
 15 48  1  0
 16 49  1  0
 16 50  1  0
 17 51  1  0
 17 52  1  0
 18 53  1  0
 18 54  1  0
 19 55  1  0
 19 56  1  0
 20 57  1  0
 20 58  1  0
 21 59  1  0
 22 60  1  0
 25 61  1  0
 25 62  1  0
 25 63  1  0
 26 64  1  0
 26 65  1  0
 29 66  1  0
 29 67  1  0
 29 68  1  0
 30 69  1  0
 32 70  1  0
 34 71  1  0
 34 72  1  0
 34 73  1  0
 35 74  1  0
M  END
>  <Ligand ID>  (1) 
LIG0003760

>  <Ligand>  (1) 
CHEMBL3634250

>  <SMILES>  (1) 
N[C@H](C(=O)N[C@@H]1CCN(c2c1cc(CC1CCCCC1)cc2)C(=O)C)Cc1c(C)cc(cc1C)O

>  <CID>  (1) 
122195956.0

>  <ChEMBL ID>  (1) 
nan

>  <InChiKey>  (1) 
VTURHVYLUFXVJQ-RRPNLBNLSA-N

>  <InChi>  (1) 
InChI=1S/C29H39N3O3/c1-18-13-23(34)14-19(2)24(18)17-26(30)29(35)31-27-11-12-32(20(3)33)28-10-9-22(16-25(27)28)15-21-7-5-4-6-8-21/h9-10,13-14,16,21,26-27,34H,4-8,11-12,15,17,30H2,1-3H3,(H,31,35)/t26-,27+/m0/s1

>  <IUPAC Name>  (1) 
(2S)-N-[(4R)-1-acetyl-6-(cyclohexylmethyl)-3,4-dihydro-2H-quinolin-4-yl]-2-amino-3-(4-hydroxy-2,6-dimethylphenyl)propanamide

$$$$
