
     RDKit          3D

 68 71  0  0  0  0  0  0  0  0999 V2000
    8.5558   -1.1462    0.3735 C   0  0  0  0  0  0  0  0  0  0  0  0
    7.4739   -0.0944    0.5169 C   0  0  0  0  0  0  0  0  0  0  0  0
    6.4671   -0.4381    1.4462 N   0  0  0  0  0  0  0  0  0  0  0  0
    5.5939   -1.4992    1.1539 C   0  0  0  0  0  0  0  0  0  0  0  0
    4.1763   -1.1845    0.8306 C   0  0  0  0  0  0  0  0  0  0  0  0
    3.8482    0.1856    0.9441 N   0  0  0  0  0  0  0  0  0  0  0  0
    4.4707    0.9065    1.9926 C   0  0  0  0  0  0  0  0  0  0  0  0
    5.9384    0.6809    2.1232 C   0  0  0  0  0  0  0  0  0  0  0  0
    3.5149    1.0297   -0.4833 S   0  0  0  0  0  0  0  0  0  0  0  0
    3.2890    2.4942   -0.2285 O   0  0  0  0  0  0  0  0  0  0  0  0
    4.6540    0.9362   -1.4552 O   0  0  0  0  0  0  0  0  0  0  0  0
    2.1146    0.3150   -1.2687 C   0  0  0  0  0  0  0  0  0  0  0  0
    2.2190   -0.7328   -2.1584 C   0  0  0  0  0  0  0  0  0  0  0  0
    1.0423   -1.2087   -2.7232 C   0  0  0  0  0  0  0  0  0  0  0  0
   -0.1930   -0.6727   -2.4230 C   0  0  0  0  0  0  0  0  0  0  0  0
   -0.2867    0.3728   -1.5335 C   0  0  0  0  0  0  0  0  0  0  0  0
    0.8839    0.8698   -0.9515 C   0  0  0  0  0  0  0  0  0  0  0  0
   -1.5341    1.0047   -1.1451 C   0  0  0  0  0  0  0  0  0  0  0  0
   -1.9162    1.9505   -1.9337 O   0  0  0  0  0  0  0  0  0  0  0  0
   -2.3058    0.6492    0.0003 N   0  0  0  0  0  0  0  0  0  0  0  0
   -1.9624   -0.3747    0.9394 C   0  0  0  0  0  0  0  0  0  0  0  0
   -2.5281   -1.7082    0.7003 C   0  0  0  0  0  0  0  0  0  0  0  0
   -3.7737   -1.9946    1.2562 C   0  0  0  0  0  0  0  0  0  0  0  0
   -4.4022   -3.2073    1.1190 C   0  0  0  0  0  0  0  0  0  0  0  0
   -3.7854   -4.2102    0.3959 C   0  0  0  0  0  0  0  0  0  0  0  0
   -2.5555   -3.9334   -0.1547 C   0  0  0  0  0  0  0  0  0  0  0  0
   -1.9362   -2.7138   -0.0096 C   0  0  0  0  0  0  0  0  0  0  0  0
   -3.5164    1.4649    0.1947 C   0  0  0  0  0  0  0  0  0  0  0  0
   -4.7086    0.9572   -0.5329 C   0  0  0  0  0  0  0  0  0  0  0  0
   -5.8314    1.9021   -0.2260 C   0  0  0  0  0  0  0  0  0  0  0  0
   -6.0424    3.0048   -1.0213 C   0  0  0  0  0  0  0  0  0  0  0  0
   -7.0376    3.9186   -0.8238 C   0  0  0  0  0  0  0  0  0  0  0  0
   -7.8844    3.6978    0.2639 C   0  0  0  0  0  0  0  0  0  0  0  0
   -7.6814    2.5966    1.0660 C   0  0  0  0  0  0  0  0  0  0  0  0
   -6.6745    1.6824    0.8567 C   0  0  0  0  0  0  0  0  0  0  0  0
   -1.6606   -1.2900   -3.1652 Cl  0  0  0  0  0  0  0  0  0  0  0  0
    9.0259   -1.3188    1.3490 H   0  0  0  0  0  0  0  0  0  0  0  0
    9.3614   -0.6507   -0.2471 H   0  0  0  0  0  0  0  0  0  0  0  0
    8.2519   -2.0347   -0.1843 H   0  0  0  0  0  0  0  0  0  0  0  0
    7.0779    0.1819   -0.4587 H   0  0  0  0  0  0  0  0  0  0  0  0
    7.9913    0.8243    0.9193 H   0  0  0  0  0  0  0  0  0  0  0  0
    5.6049   -2.1844    2.0615 H   0  0  0  0  0  0  0  0  0  0  0  0
    6.0262   -2.1603    0.3552 H   0  0  0  0  0  0  0  0  0  0  0  0
    3.5203   -1.7339    1.5734 H   0  0  0  0  0  0  0  0  0  0  0  0
    3.8666   -1.6245   -0.1491 H   0  0  0  0  0  0  0  0  0  0  0  0
    4.3053    2.0028    1.7987 H   0  0  0  0  0  0  0  0  0  0  0  0
    3.9649    0.7222    2.9635 H   0  0  0  0  0  0  0  0  0  0  0  0
    6.1616    0.5237    3.2217 H   0  0  0  0  0  0  0  0  0  0  0  0
    6.5051    1.6092    1.8837 H   0  0  0  0  0  0  0  0  0  0  0  0
    3.1844   -1.1539   -2.3955 H   0  0  0  0  0  0  0  0  0  0  0  0
    1.0748   -2.0270   -3.4238 H   0  0  0  0  0  0  0  0  0  0  0  0
    0.8126    1.7066   -0.2393 H   0  0  0  0  0  0  0  0  0  0  0  0
   -0.8313   -0.4709    1.0240 H   0  0  0  0  0  0  0  0  0  0  0  0
   -2.2650   -0.0799    1.9722 H   0  0  0  0  0  0  0  0  0  0  0  0
   -4.2979   -1.2273    1.8382 H   0  0  0  0  0  0  0  0  0  0  0  0
   -5.3712   -3.3755    1.5720 H   0  0  0  0  0  0  0  0  0  0  0  0
   -4.2243   -5.1895    0.2478 H   0  0  0  0  0  0  0  0  0  0  0  0
   -2.0704   -4.7113   -0.7195 H   0  0  0  0  0  0  0  0  0  0  0  0
   -0.9700   -2.5593   -0.4555 H   0  0  0  0  0  0  0  0  0  0  0  0
   -3.6982    1.5455    1.2876 H   0  0  0  0  0  0  0  0  0  0  0  0
   -3.3258    2.5040   -0.1593 H   0  0  0  0  0  0  0  0  0  0  0  0
   -4.5015    1.0445   -1.6388 H   0  0  0  0  0  0  0  0  0  0  0  0
   -5.0767   -0.0306   -0.2641 H   0  0  0  0  0  0  0  0  0  0  0  0
   -5.3631    3.1576   -1.8711 H   0  0  0  0  0  0  0  0  0  0  0  0
   -7.1884    4.7853   -1.4644 H   0  0  0  0  0  0  0  0  0  0  0  0
   -8.6710    4.4215    0.4183 H   0  0  0  0  0  0  0  0  0  0  0  0
   -8.3770    2.4793    1.9001 H   0  0  0  0  0  0  0  0  0  0  0  0
   -6.5287    0.8137    1.5033 H   0  0  0  0  0  0  0  0  0  0  0  0
  1  2  1  0
  2  3  1  0
  3  4  1  0
  4  5  1  0
  5  6  1  0
  6  7  1  0
  7  8  1  0
  6  9  1  0
  9 10  2  0
  9 11  2  0
  9 12  1  0
 12 13  2  0
 13 14  1  0
 14 15  2  0
 15 16  1  0
 16 17  2  0
 16 18  1  0
 18 19  2  0
 18 20  1  0
 20 21  1  0
 21 22  1  0
 22 23  2  0
 23 24  1  0
 24 25  2  0
 25 26  1  0
 26 27  2  0
 20 28  1  0
 28 29  1  0
 29 30  1  0
 30 31  2  0
 31 32  1  0
 32 33  2  0
 33 34  1  0
 34 35  2  0
 15 36  1  0
  8  3  1  0
 17 12  1  0
 27 22  1  0
 35 30  1  0
  1 37  1  0
  1 38  1  0
  1 39  1  0
  2 40  1  0
  2 41  1  0
  4 42  1  0
  4 43  1  0
  5 44  1  0
  5 45  1  0
  7 46  1  0
  7 47  1  0
  8 48  1  0
  8 49  1  0
 13 50  1  0
 14 51  1  0
 17 52  1  0
 21 53  1  0
 21 54  1  0
 23 55  1  0
 24 56  1  0
 25 57  1  0
 26 58  1  0
 27 59  1  0
 28 60  1  0
 28 61  1  0
 29 62  1  0
 29 63  1  0
 31 64  1  0
 32 65  1  0
 33 66  1  0
 34 67  1  0
 35 68  1  0
M  END
>  <Ligand ID>  (1) 
LIG0004407

>  <Ligand>  (1) 
MLS002179937

>  <SMILES>  (1) 
CCN1CCN(CC1)S(=O)(=O)c1ccc(c(c1)C(=O)N(Cc1ccccc1)CCc1ccccc1)Cl

>  <CID>  (1) 
25162458.0

>  <ChEMBL ID>  (1) 
nan

>  <InChiKey>  (1) 
UJMSRLDUMIFPLQ-UHFFFAOYSA-N

>  <InChi>  (1) 
InChI=1S/C28H32ClN3O3S/c1-2-30-17-19-32(20-18-30)36(34,35)25-13-14-27(29)26(21-25)28(33)31(22-24-11-7-4-8-12-24)16-15-23-9-5-3-6-10-23/h3-14,21H,2,15-20,22H2,1H3

>  <IUPAC Name>  (1) 
N-benzyl-2-chloro-5-(4-ethylpiperazin-1-yl)sulfonyl-N-(2-phenylethyl)benzamide

$$$$
