
     RDKit          3D

 18 18  0  0  0  0  0  0  0  0999 V2000
    3.4895    0.4171   -0.2292 C   0  0  0  0  0  0  0  0  0  0  0  0
    2.0702    0.5796   -0.1484 O   0  0  0  0  0  0  0  0  0  0  0  0
    1.2041   -0.5019   -0.3063 C   0  0  0  0  0  0  0  0  0  0  0  0
    1.6058   -1.6728   -0.5265 O   0  0  0  0  0  0  0  0  0  0  0  0
   -0.2414   -0.2691   -0.2123 C   0  0  0  0  0  0  0  0  0  0  0  0
   -1.1035   -1.3433   -0.3690 C   0  0  0  0  0  0  0  0  0  0  0  0
   -2.4852   -1.1388   -0.2823 C   0  0  0  0  0  0  0  0  0  0  0  0
   -2.9531    0.1562   -0.0379 C   0  0  0  0  0  0  0  0  0  0  0  0
   -2.0770    1.2189    0.1163 C   0  0  0  0  0  0  0  0  0  0  0  0
   -0.7349    0.9978    0.0281 C   0  0  0  0  0  0  0  0  0  0  0  0
    3.8828    1.4739   -0.2208 H   0  0  0  0  0  0  0  0  0  0  0  0
    3.7828    0.0205   -1.2176 H   0  0  0  0  0  0  0  0  0  0  0  0
    3.9255   -0.0884    0.6319 H   0  0  0  0  0  0  0  0  0  0  0  0
   -0.7300   -2.3608   -0.5613 H   0  0  0  0  0  0  0  0  0  0  0  0
   -3.1872   -1.9382   -0.3968 H   0  0  0  0  0  0  0  0  0  0  0  0
   -4.0029    0.3844    0.0407 H   0  0  0  0  0  0  0  0  0  0  0  0
   -2.4067    2.2342    0.3065 H   0  0  0  0  0  0  0  0  0  0  0  0
   -0.0390    1.8309    0.1486 H   0  0  0  0  0  0  0  0  0  0  0  0
  1  2  1  0
  2  3  1  0
  3  4  2  0
  3  5  1  0
  5  6  2  0
  6  7  1  0
  7  8  2  0
  8  9  1  0
  9 10  2  0
 10  5  1  0
  1 11  1  0
  1 12  1  0
  1 13  1  0
  6 14  1  0
  7 15  1  0
  8 16  1  0
  9 17  1  0
 10 18  1  0
M  END
>  <Ligand ID>  (1) 
LIG0000064

>  <Ligand>  (1) 
methyl benzoate

>  <SMILES>  (1) 
COC(=O)c1ccccc1

>  <CID>  (1) 
7150.0

>  <ChEMBL ID>  (1) 
nan

>  <InChiKey>  (1) 
QPJVMBTYPHYUOC-UHFFFAOYSA-N

>  <InChi>  (1) 
InChI=1S/C8H8O2/c1-10-8(9)7-5-3-2-4-6-7/h2-6H,1H3

>  <IUPAC Name>  (1) 
methyl benzoate

$$$$
