
     RDKit          3D

108112  0  0  0  0  0  0  0  0999 V2000
    0.4360    5.6713   -1.9810 N   0  0  0  0  0  0  0  0  0  0  0  0
    1.0426    4.6786   -1.1591 C   0  0  0  0  0  0  0  0  0  0  0  0
    0.3361    3.7321   -0.5949 N   0  0  0  0  0  0  0  0  0  0  0  0
    1.0675    2.7632    0.2323 C   0  0  0  0  0  0  0  0  0  0  0  0
    0.0260    1.7276    0.6270 C   0  0  0  0  0  0  0  0  0  0  0  0
    0.6268    0.6154    1.5077 C   0  0  0  0  0  0  0  0  0  0  0  0
    1.6515   -0.1118    0.7231 C   0  0  1  0  0  0  0  0  0  0  0  0
    2.2927   -1.1767    1.6016 C   0  0  0  0  0  0  0  0  0  0  0  0
    3.3398   -1.7986    0.8749 N   0  0  0  0  0  0  0  0  0  0  0  0
    3.4269   -2.8405   -0.0107 C   0  0  0  0  0  0  0  0  0  0  0  0
    4.6881   -2.7695   -0.4838 O   0  0  0  0  0  0  0  0  0  0  0  0
    2.7716   -3.9615   -0.6596 C   0  0  0  0  0  0  0  0  0  0  0  0
    1.8516   -3.7911   -2.1255 S   0  0  0  0  0  0  0  0  0  0  0  0
    0.2168   -3.2935   -2.2820 C   0  0  0  0  0  0  0  0  0  0  0  0
   -0.3507   -1.9504   -2.0531 C   0  0  2  0  0  0  0  0  0  0  0  0
   -0.0912   -1.3476   -0.7006 C   0  0  0  0  0  0  0  0  0  0  0  0
   -0.8932   -1.3255    0.2165 O   0  0  0  0  0  0  0  0  0  0  0  0
    1.1774   -0.7579   -0.4910 N   0  0  0  0  0  0  0  0  0  0  0  0
   -1.8346   -2.0779   -2.2211 N   0  0  0  0  0  0  0  0  0  0  0  0
   -2.7032   -1.0143   -1.9457 C   0  0  0  0  0  0  0  0  0  0  0  0
   -2.2052    0.0602   -1.5279 O   0  0  0  0  0  0  0  0  0  0  0  0
   -4.1761   -1.0368   -2.1021 C   0  0  2  0  0  0  0  0  0  0  0  0
   -4.7756    0.0846   -1.4102 N   0  0  0  0  0  0  0  0  0  0  0  0
   -5.0992    1.3392   -1.9648 C   0  0  0  0  0  0  0  0  0  0  0  0
   -4.8843    1.6276   -3.1941 O   0  0  0  0  0  0  0  0  0  0  0  0
   -5.7132    2.3362   -1.0424 C   0  0  2  0  0  0  0  0  0  0  0  0
   -4.9646    3.6318   -0.9615 C   0  0  0  0  0  0  0  0  0  0  0  0
   -5.6615    4.5602   -0.0004 C   0  0  0  0  0  0  0  0  0  0  0  0
   -6.6210    5.4599   -0.2393 N   0  0  0  0  0  0  0  0  0  0  0  0
   -6.9393    6.0539    0.9224 C   0  0  0  0  0  0  0  0  0  0  0  0
   -6.2042    5.5611    1.9319 N   0  0  0  0  0  0  0  0  0  0  0  0
   -5.4058    4.6326    1.3792 C   0  0  0  0  0  0  0  0  0  0  0  0
   -5.9330    1.7734    0.2993 N   0  0  0  0  0  0  0  0  0  0  0  0
   -7.2557    1.6087    0.7832 C   0  0  0  0  0  0  0  0  0  0  0  0
   -8.2459    1.9522    0.0490 O   0  0  0  0  0  0  0  0  0  0  0  0
   -7.5973    1.0551    2.1077 C   0  0  0  0  0  0  0  0  0  0  0  0
   -4.8557   -2.3212   -1.8912 C   0  0  0  0  0  0  0  0  0  0  0  0
   -4.7861   -2.9713   -0.5913 C   0  0  0  0  0  0  0  0  0  0  0  0
   -5.7334   -2.5986    0.3653 C   0  0  0  0  0  0  0  0  0  0  0  0
   -5.8001   -3.1605    1.6207 C   0  0  0  0  0  0  0  0  0  0  0  0
   -4.8916   -4.1558    1.9894 C   0  0  0  0  0  0  0  0  0  0  0  0
   -3.9708   -4.5060    1.0361 C   0  0  0  0  0  0  0  0  0  0  0  0
   -3.8843   -3.9621   -0.2172 C   0  0  0  0  0  0  0  0  0  0  0  0
    4.6756   -1.0727    1.1136 C   0  0  2  0  0  0  0  0  0  0  0  0
    5.1471   -0.3930   -0.0563 C   0  0  0  0  0  0  0  0  0  0  0  0
    4.6297   -0.4072   -1.2216 O   0  0  0  0  0  0  0  0  0  0  0  0
    6.3373    0.4186    0.0393 N   0  0  0  0  0  0  0  0  0  0  0  0
    5.5959   -1.9541    1.8342 C   0  0  0  0  0  0  0  0  0  0  0  0
    6.9673   -1.4603    2.1145 C   0  0  0  0  0  0  0  0  0  0  0  0
    7.4299   -0.7944    3.2451 C   0  0  0  0  0  0  0  0  0  0  0  0
    8.7275   -0.5021    3.0945 N   0  0  0  0  0  0  0  0  0  0  0  0
    9.1724   -0.9415    1.9038 C   0  0  0  0  0  0  0  0  0  0  0  0
    8.0981   -1.5312    1.2960 C   0  0  0  0  0  0  0  0  0  0  0  0
    8.3001   -2.1001    0.0325 C   0  0  0  0  0  0  0  0  0  0  0  0
    9.5170   -2.0873   -0.6045 C   0  0  0  0  0  0  0  0  0  0  0  0
   10.6015   -1.4907    0.0099 C   0  0  0  0  0  0  0  0  0  0  0  0
   10.3882   -0.9318    1.2583 C   0  0  0  0  0  0  0  0  0  0  0  0
    2.4635    4.7555   -0.9768 N   0  0  0  0  0  0  0  0  0  0  0  0
   -0.6046    5.8312   -1.9974 H   0  0  0  0  0  0  0  0  0  0  0  0
    0.9861    6.2994   -2.6207 H   0  0  0  0  0  0  0  0  0  0  0  0
    1.8890    2.3809   -0.3742 H   0  0  0  0  0  0  0  0  0  0  0  0
    1.4533    3.2757    1.1208 H   0  0  0  0  0  0  0  0  0  0  0  0
   -0.7988    2.2178    1.1376 H   0  0  0  0  0  0  0  0  0  0  0  0
   -0.2236    1.2215   -0.3241 H   0  0  0  0  0  0  0  0  0  0  0  0
   -0.2188    0.0113    1.8730 H   0  0  0  0  0  0  0  0  0  0  0  0
    1.1199    1.1464    2.3752 H   0  0  0  0  0  0  0  0  0  0  0  0
    2.4264    0.6159    0.4414 H   0  0  0  0  0  0  0  0  0  0  0  0
    2.7309   -0.5707    2.4522 H   0  0  0  0  0  0  0  0  0  0  0  0
    1.6030   -1.8491    2.0861 H   0  0  0  0  0  0  0  0  0  0  0  0
    3.5658   -4.7946   -0.8637 H   0  0  0  0  0  0  0  0  0  0  0  0
    2.1069   -4.5613    0.0732 H   0  0  0  0  0  0  0  0  0  0  0  0
   -0.5274   -4.0838   -1.8288 H   0  0  0  0  0  0  0  0  0  0  0  0
   -0.0631   -3.4786   -3.4234 H   0  0  0  0  0  0  0  0  0  0  0  0
   -0.0415   -1.1985   -2.7691 H   0  0  0  0  0  0  0  0  0  0  0  0
    1.8252   -0.7865   -1.2863 H   0  0  0  0  0  0  0  0  0  0  0  0
   -2.2447   -2.9671   -2.5803 H   0  0  0  0  0  0  0  0  0  0  0  0
   -4.3075   -0.7705   -3.2101 H   0  0  0  0  0  0  0  0  0  0  0  0
   -4.9756   -0.0921   -0.3737 H   0  0  0  0  0  0  0  0  0  0  0  0
   -6.7188    2.5607   -1.4518 H   0  0  0  0  0  0  0  0  0  0  0  0
   -3.9016    3.5153   -0.6753 H   0  0  0  0  0  0  0  0  0  0  0  0
   -4.9993    4.1376   -1.9494 H   0  0  0  0  0  0  0  0  0  0  0  0
   -7.0356    5.6417   -1.1949 H   0  0  0  0  0  0  0  0  0  0  0  0
   -7.6796    6.8418    1.0987 H   0  0  0  0  0  0  0  0  0  0  0  0
   -4.6553    3.9931    1.8510 H   0  0  0  0  0  0  0  0  0  0  0  0
   -5.1522    1.4852    0.9153 H   0  0  0  0  0  0  0  0  0  0  0  0
   -8.1257    0.0908    1.9951 H   0  0  0  0  0  0  0  0  0  0  0  0
   -6.6976    0.8693    2.6926 H   0  0  0  0  0  0  0  0  0  0  0  0
   -8.2896    1.7532    2.6344 H   0  0  0  0  0  0  0  0  0  0  0  0
   -4.4118   -3.0708   -2.6375 H   0  0  0  0  0  0  0  0  0  0  0  0
   -5.9389   -2.2994   -2.2425 H   0  0  0  0  0  0  0  0  0  0  0  0
   -6.4831   -1.8277    0.1539 H   0  0  0  0  0  0  0  0  0  0  0  0
   -6.5302   -2.8743    2.3697 H   0  0  0  0  0  0  0  0  0  0  0  0
   -4.9610   -4.5899    2.9764 H   0  0  0  0  0  0  0  0  0  0  0  0
   -3.2519   -5.2788    1.3073 H   0  0  0  0  0  0  0  0  0  0  0  0
   -3.1314   -4.3002   -0.9074 H   0  0  0  0  0  0  0  0  0  0  0  0
    4.4132   -0.2436    1.8591 H   0  0  0  0  0  0  0  0  0  0  0  0
    7.0320    0.3810   -0.7262 H   0  0  0  0  0  0  0  0  0  0  0  0
    6.4896    1.0324    0.8667 H   0  0  0  0  0  0  0  0  0  0  0  0
    5.6713   -3.0165    1.4801 H   0  0  0  0  0  0  0  0  0  0  0  0
    5.1884   -2.1377    2.9060 H   0  0  0  0  0  0  0  0  0  0  0  0
    6.7960   -0.5575    4.1151 H   0  0  0  0  0  0  0  0  0  0  0  0
    9.3631   -0.0061    3.7651 H   0  0  0  0  0  0  0  0  0  0  0  0
    7.4506   -2.5753   -0.4746 H   0  0  0  0  0  0  0  0  0  0  0  0
    9.6625   -2.5321   -1.5724 H   0  0  0  0  0  0  0  0  0  0  0  0
   11.5531   -1.4859   -0.4931 H   0  0  0  0  0  0  0  0  0  0  0  0
   11.2020   -0.4560    1.7770 H   0  0  0  0  0  0  0  0  0  0  0  0
    2.7713    5.1406   -0.0349 H   0  0  0  0  0  0  0  0  0  0  0  0
    3.1435    4.4582   -1.7146 H   0  0  0  0  0  0  0  0  0  0  0  0
  1  2  1  0
  2  3  2  3
  3  4  1  0
  4  5  1  0
  5  6  1  0
  6  7  1  0
  7  8  1  0
  8  9  1  0
  9 10  1  0
 10 11  2  0
 10 12  1  0
 12 13  1  0
 13 14  1  0
 14 15  1  0
 15 16  1  0
 16 17  2  0
 16 18  1  0
 15 19  1  0
 19 20  1  0
 20 21  2  0
 20 22  1  0
 22 23  1  0
 23 24  1  0
 24 25  2  0
 24 26  1  0
 26 27  1  0
 27 28  1  0
 28 29  1  0
 29 30  1  0
 30 31  2  0
 31 32  1  0
 26 33  1  0
 33 34  1  0
 34 35  2  0
 34 36  1  0
 22 37  1  0
 37 38  1  0
 38 39  2  0
 39 40  1  0
 40 41  2  0
 41 42  1  0
 42 43  2  0
  9 44  1  0
 44 45  1  0
 45 46  2  0
 45 47  1  0
 44 48  1  0
 48 49  1  0
 49 50  2  0
 50 51  1  0
 51 52  1  0
 52 53  2  0
 53 54  1  0
 54 55  2  0
 55 56  1  0
 56 57  2  0
  2 58  1  0
 18  7  1  0
 32 28  2  0
 43 38  1  0
 53 49  1  0
 57 52  1  0
  1 59  1  0
  1 60  1  0
  4 61  1  0
  4 62  1  0
  5 63  1  0
  5 64  1  0
  6 65  1  0
  6 66  1  0
  7 67  1  6
  8 68  1  0
  8 69  1  0
 12 70  1  0
 12 71  1  0
 14 72  1  0
 14 73  1  0
 15 74  1  6
 18 75  1  0
 19 76  1  0
 22 77  1  6
 23 78  1  0
 26 79  1  6
 27 80  1  0
 27 81  1  0
 29 82  1  0
 30 83  1  0
 32 84  1  0
 33 85  1  0
 36 86  1  0
 36 87  1  0
 36 88  1  0
 37 89  1  0
 37 90  1  0
 39 91  1  0
 40 92  1  0
 41 93  1  0
 42 94  1  0
 43 95  1  0
 44 96  1  1
 47 97  1  0
 47 98  1  0
 48 99  1  0
 48100  1  0
 50101  1  0
 51102  1  0
 54103  1  0
 55104  1  0
 56105  1  0
 57106  1  0
 58107  1  0
 58108  1  0
M  END
>  <Ligand ID>  (1) 
LIG0001439

>  <Ligand>  (1) 
CHEMBL1688108

>  <SMILES>  (1) 
NC(=NCCC[C@H]1CN(C(=O)CSC[C@H](C(=O)N1)NC(=O)[C@H](NC(=O)[C@H](Cc1[nH]cnc1)NC(=O)C)Cc1ccccc1)[C@H](C(=O)N)Cc1c[nH]c2c1cccc2)N

>  <CID>  (1) 
53318436.0

>  <ChEMBL ID>  (1) 
nan

>  <InChiKey>  (1) 
DPRUDGOHUWTPRM-KELWCDABSA-N

>  <InChi>  (1) 
InChI=1S/C39H50N12O6S/c1-23(52)47-31(16-27-18-43-22-46-27)37(56)49-30(14-24-8-3-2-4-9-24)36(55)50-32-20-58-21-34(53)51(19-26(48-38(32)57)10-7-13-44-39(41)42)33(35(40)54)15-25-17-45-29-12-6-5-11-28(25)29/h2-6,8-9,11-12,17-18,22,26,30-33,45H,7,10,13-16,19-21H2,1H3,(H2,40,54)(H,43,46)(H,47,52)(H,48,57)(H,49,56)(H,50,55)(H4,41,42,44)/t26-,30+,31-,32+,33-/m0/s1

>  <IUPAC Name>  (1) 
(2R)-2-[[(2S)-2-acetamido-3-(1H-imidazol-5-yl)propanoyl]amino]-N-[(6S,9S)-4-[(2S)-1-amino-3-(1H-indol-3-yl)-1-oxopropan-2-yl]-6-[3-(diaminomethylideneamino)propyl]-3,8-dioxo-1,4,7-thiadiazecan-9-yl]-3-phenylpropanamide

$$$$
