
     RDKit          3D

 49 53  0  0  0  0  0  0  0  0999 V2000
   -7.3890    2.1965    0.7473 C   0  0  0  0  0  0  0  0  0  0  0  0
   -7.3807    0.6845    0.8187 C   0  0  0  0  0  0  0  0  0  0  0  0
   -6.4308    0.0798   -0.0907 N   0  0  0  0  0  0  0  0  0  0  0  0
   -6.6968   -0.2812   -1.3482 N   0  0  0  0  0  0  0  0  0  0  0  0
   -5.5769   -0.7911   -1.8417 N   0  0  0  0  0  0  0  0  0  0  0  0
   -4.5971   -0.7577   -0.9060 C   0  0  0  0  0  0  0  0  0  0  0  0
   -5.1792   -0.2040    0.1736 N   0  0  0  0  0  0  0  0  0  0  0  0
   -3.2018   -1.1994   -0.9683 C   0  0  1  0  0  0  0  0  0  0  0  0
   -2.3050   -0.2593   -0.4123 O   0  0  0  0  0  0  0  0  0  0  0  0
   -1.1298   -1.0373   -0.4371 C   0  0  2  0  0  0  0  0  0  0  0  0
   -1.5554   -2.2252    0.3643 C   0  0  1  0  0  0  0  0  0  0  0  0
   -2.9665   -2.4734   -0.1639 C   0  0  2  0  0  0  0  0  0  0  0  0
   -2.9124   -3.5636   -1.0037 O   0  0  0  0  0  0  0  0  0  0  0  0
   -0.7188   -3.2949    0.0537 O   0  0  0  0  0  0  0  0  0  0  0  0
    0.0168   -0.3419    0.0732 N   0  0  0  0  0  0  0  0  0  0  0  0
   -0.0246    0.5945    1.0520 C   0  0  0  0  0  0  0  0  0  0  0  0
    1.2342    1.0289    1.2710 N   0  0  0  0  0  0  0  0  0  0  0  0
    2.0545    0.3609    0.4272 C   0  0  0  0  0  0  0  0  0  0  0  0
    1.2897   -0.5080   -0.3333 C   0  0  0  0  0  0  0  0  0  0  0  0
    1.9178   -1.2765   -1.2459 N   0  0  0  0  0  0  0  0  0  0  0  0
    3.2627   -1.2019   -1.4161 C   0  0  0  0  0  0  0  0  0  0  0  0
    4.0403   -2.2257   -2.6210 Cl  0  0  0  0  0  0  0  0  0  0  0  0
    3.9817   -0.3415   -0.6560 N   0  0  0  0  0  0  0  0  0  0  0  0
    3.4314    0.4591    0.2757 C   0  0  0  0  0  0  0  0  0  0  0  0
    4.2175    1.3522    1.0574 N   0  0  0  0  0  0  0  0  0  0  0  0
    5.6286    1.4635    0.9131 C   0  0  0  0  0  0  0  0  0  0  0  0
    6.5047    1.2060    1.9522 C   0  0  0  0  0  0  0  0  0  0  0  0
    7.8564    1.3488    1.6892 C   0  0  0  0  0  0  0  0  0  0  0  0
    8.3010    1.7297    0.4485 C   0  0  0  0  0  0  0  0  0  0  0  0
    7.4341    1.9842   -0.5786 C   0  0  0  0  0  0  0  0  0  0  0  0
    6.0836    1.8514   -0.3498 C   0  0  0  0  0  0  0  0  0  0  0  0
    5.1920    2.1011   -1.3643 F   0  0  0  0  0  0  0  0  0  0  0  0
   10.0251    1.9177    0.0926 Cl  0  0  0  0  0  0  0  0  0  0  0  0
   -6.8531    2.5190   -0.1555 H   0  0  0  0  0  0  0  0  0  0  0  0
   -8.4258    2.6117    0.7432 H   0  0  0  0  0  0  0  0  0  0  0  0
   -6.8304    2.5811    1.6255 H   0  0  0  0  0  0  0  0  0  0  0  0
   -8.4195    0.3655    0.5136 H   0  0  0  0  0  0  0  0  0  0  0  0
   -7.2356    0.3302    1.8656 H   0  0  0  0  0  0  0  0  0  0  0  0
   -2.8303   -1.3470   -2.0034 H   0  0  0  0  0  0  0  0  0  0  0  0
   -1.0227   -1.3795   -1.4876 H   0  0  0  0  0  0  0  0  0  0  0  0
   -1.6078   -2.0281    1.4460 H   0  0  0  0  0  0  0  0  0  0  0  0
   -3.6926   -2.5688    0.6639 H   0  0  0  0  0  0  0  0  0  0  0  0
   -2.5855   -3.2335   -1.8872 H   0  0  0  0  0  0  0  0  0  0  0  0
   -0.1414   -3.4437    0.8385 H   0  0  0  0  0  0  0  0  0  0  0  0
   -0.9214    0.9236    1.5584 H   0  0  0  0  0  0  0  0  0  0  0  0
    3.7114    1.9409    1.7611 H   0  0  0  0  0  0  0  0  0  0  0  0
    6.1187    0.9066    2.9211 H   0  0  0  0  0  0  0  0  0  0  0  0
    8.5767    1.1597    2.4655 H   0  0  0  0  0  0  0  0  0  0  0  0
    7.7520    2.2861   -1.5678 H   0  0  0  0  0  0  0  0  0  0  0  0
  1  2  1  0
  2  3  1  0
  3  4  1  0
  4  5  2  0
  5  6  1  0
  6  7  2  0
  6  8  1  0
  8  9  1  0
  9 10  1  0
 10 11  1  0
 11 12  1  0
 12 13  1  0
 11 14  1  0
 10 15  1  0
 15 16  1  0
 16 17  2  0
 17 18  1  0
 18 19  2  0
 19 20  1  0
 20 21  2  0
 21 22  1  0
 21 23  1  0
 23 24  2  0
 24 25  1  0
 25 26  1  0
 26 27  2  0
 27 28  1  0
 28 29  2  0
 29 30  1  0
 30 31  2  0
 31 32  1  0
 29 33  1  0
  7  3  1  0
 12  8  1  0
 19 15  1  0
 31 26  1  0
 24 18  1  0
  1 34  1  0
  1 35  1  0
  1 36  1  0
  2 37  1  0
  2 38  1  0
  8 39  1  6
 10 40  1  6
 11 41  1  1
 12 42  1  1
 13 43  1  0
 14 44  1  0
 16 45  1  0
 25 46  1  0
 27 47  1  0
 28 48  1  0
 30 49  1  0
M  END
>  <Ligand ID>  (1) 
LIG0001921

>  <Ligand>  (1) 
CHEMBL3414947

>  <SMILES>  (1) 
CCn1nnc(n1)[C@H]1O[C@H]([C@@H]([C@@H]1O)O)n1cnc2c1nc(Cl)nc2Nc1ccc(cc1F)Cl

>  <CID>  (1) 
118732981.0

>  <ChEMBL ID>  (1) 
nan

>  <InChiKey>  (1) 
HLHAFTISHRHDPF-PFHKOEEOSA-N

>  <InChi>  (1) 
InChI=1S/C18H16Cl2FN9O3/c1-2-30-27-15(26-28-30)13-11(31)12(32)17(33-13)29-6-22-10-14(24-18(20)25-16(10)29)23-9-4-3-7(19)5-8(9)21/h3-6,11-13,17,31-32H,2H2,1H3,(H,23,24,25)/t11-,12+,13-,17+/m0/s1

>  <IUPAC Name>  (1) 
(2R,3R,4S,5R)-2-[2-chloro-6-(4-chloro-2-fluoroanilino)purin-9-yl]-5-(2-ethyltetrazol-5-yl)oxolane-3,4-diol

$$$$
