
     RDKit          3D

122124  0  0  0  0  0  0  0  0999 V2000
    7.3324   -2.6186    3.8607 C   0  0  0  0  0  0  0  0  0  0  0  0
    7.2828   -3.7182    2.4352 S   0  0  0  0  0  0  0  0  0  0  0  0
    6.1441   -3.3161    1.1639 C   0  0  0  0  0  0  0  0  0  0  0  0
    6.3648   -2.2359    0.1811 C   0  0  0  0  0  0  0  0  0  0  0  0
    6.6344   -0.9013    0.7451 C   0  0  1  0  0  0  0  0  0  0  0  0
    7.9020   -0.7908    1.4668 C   0  0  0  0  0  0  0  0  0  0  0  0
    8.7574   -1.7336    1.3097 O   0  0  0  0  0  0  0  0  0  0  0  0
    8.2931    0.2521    2.3337 N   0  0  0  0  0  0  0  0  0  0  0  0
    6.4387    0.2283   -0.1328 N   0  0  0  0  0  0  0  0  0  0  0  0
    5.3397    1.1120   -0.1233 C   0  0  0  0  0  0  0  0  0  0  0  0
    4.4305    0.9095    0.7584 O   0  0  0  0  0  0  0  0  0  0  0  0
    5.1394    2.2395   -1.0547 C   0  0  1  0  0  0  0  0  0  0  0  0
    3.7071    2.6503   -1.0404 N   0  0  0  0  0  0  0  0  0  0  0  0
    2.8011    1.8817   -1.8767 C   0  0  0  0  0  0  0  0  0  0  0  0
    3.3468    0.9355   -2.4883 O   0  0  0  0  0  0  0  0  0  0  0  0
    1.3721    2.2432   -1.9514 C   0  0  1  0  0  0  0  0  0  0  0  0
    1.1941    3.1120   -3.2652 C   0  0  0  0  0  0  0  0  0  0  0  0
    1.4306    2.0500   -4.3204 C   0  0  0  0  0  0  0  0  0  0  0  0
    0.9716    0.7545   -3.7109 C   0  0  0  0  0  0  0  0  0  0  0  0
    0.4916    1.1882   -2.3825 N   0  0  0  0  0  0  0  0  0  0  0  0
   -0.6583    0.6021   -1.8110 C   0  0  0  0  0  0  0  0  0  0  0  0
   -1.1817   -0.3296   -2.5372 O   0  0  0  0  0  0  0  0  0  0  0  0
   -1.3217    0.9111   -0.5483 C   0  0  2  0  0  0  0  0  0  0  0  0
   -0.5258    0.8945    0.6916 C   0  0  0  0  0  0  0  0  0  0  0  0
    0.0889   -0.3973    1.0394 C   0  0  0  0  0  0  0  0  0  0  0  0
    1.3013   -0.8404    0.5548 C   0  0  0  0  0  0  0  0  0  0  0  0
    1.8836   -2.0268    0.9150 C   0  0  0  0  0  0  0  0  0  0  0  0
    1.2558   -2.8716    1.8210 C   0  0  0  0  0  0  0  0  0  0  0  0
    0.0329   -2.4583    2.3305 C   0  0  0  0  0  0  0  0  0  0  0  0
   -0.5355   -1.2572    1.9515 C   0  0  0  0  0  0  0  0  0  0  0  0
   -2.5807    0.1768   -0.4806 N   0  0  0  0  0  0  0  0  0  0  0  0
   -2.7197   -1.2186   -0.6212 C   0  0  0  0  0  0  0  0  0  0  0  0
   -1.7940   -2.0339   -0.7942 O   0  0  0  0  0  0  0  0  0  0  0  0
   -4.1111   -1.7780   -0.5597 C   0  0  2  0  0  0  0  0  0  0  0  0
   -4.3932   -2.5899   -1.7994 C   0  0  0  0  0  0  0  0  0  0  0  0
   -3.5164   -3.7352   -2.0218 C   0  0  0  0  0  0  0  0  0  0  0  0
   -3.8604   -4.9332   -1.3827 C   0  0  0  0  0  0  0  0  0  0  0  0
   -3.1229   -6.0854   -1.5211 C   0  0  0  0  0  0  0  0  0  0  0  0
   -1.9822   -6.0793   -2.3271 C   0  0  0  0  0  0  0  0  0  0  0  0
   -1.6317   -4.9125   -2.9622 C   0  0  0  0  0  0  0  0  0  0  0  0
   -2.3853   -3.7370   -2.8204 C   0  0  0  0  0  0  0  0  0  0  0  0
   -5.1004   -0.7155   -0.4982 N   0  0  0  0  0  0  0  0  0  0  0  0
   -6.0586   -0.5595    0.5344 C   0  0  0  0  0  0  0  0  0  0  0  0
   -6.0568   -1.3850    1.4628 O   0  0  0  0  0  0  0  0  0  0  0  0
   -6.9913    0.5959    0.4031 C   0  0  1  0  0  0  0  0  0  0  0  0
   -6.6867    1.3851   -0.8050 N   0  0  0  0  0  0  0  0  0  0  0  0
   -6.2742    2.7483   -0.7156 C   0  0  0  0  0  0  0  0  0  0  0  0
   -6.1444    3.3563    0.3770 O   0  0  0  0  0  0  0  0  0  0  0  0
   -5.9907    3.4610   -2.0023 C   0  0  0  0  0  0  0  0  0  0  0  0
   -8.4244    0.2153    0.2796 C   0  0  0  0  0  0  0  0  0  0  0  0
   -8.9536   -0.5346    1.4348 C   0  0  0  0  0  0  0  0  0  0  0  0
   -8.9621    0.1320    2.7607 C   0  0  0  0  0  0  0  0  0  0  0  0
   -7.6865    0.5150    3.2870 N   0  0  0  0  0  0  0  0  0  0  0  0
   -7.4434    1.5148    4.0530 C   0  0  0  0  0  0  0  0  0  0  0  0
   -6.1330    1.8037    4.5202 N   0  0  0  0  0  0  0  0  0  0  0  0
   -8.4959    2.3874    4.4663 N   0  0  0  0  0  0  0  0  0  0  0  0
    5.9788    3.4278   -0.8329 C   0  0  0  0  0  0  0  0  0  0  0  0
    7.4434    3.3823   -0.8882 C   0  0  0  0  0  0  0  0  0  0  0  0
    7.9242    2.8850   -2.2289 C   0  0  0  0  0  0  0  0  0  0  0  0
    8.1861    2.7713    0.2322 C   0  0  0  0  0  0  0  0  0  0  0  0
    6.5795   -1.8109    3.8515 H   0  0  0  0  0  0  0  0  0  0  0  0
    8.3674   -2.1782    3.9550 H   0  0  0  0  0  0  0  0  0  0  0  0
    7.2119   -3.1790    4.8237 H   0  0  0  0  0  0  0  0  0  0  0  0
    5.1396   -3.0744    1.7089 H   0  0  0  0  0  0  0  0  0  0  0  0
    5.8089   -4.2451    0.5785 H   0  0  0  0  0  0  0  0  0  0  0  0
    5.5379   -2.2072   -0.5940 H   0  0  0  0  0  0  0  0  0  0  0  0
    7.2835   -2.5489   -0.4297 H   0  0  0  0  0  0  0  0  0  0  0  0
    5.8110   -0.8151    1.5801 H   0  0  0  0  0  0  0  0  0  0  0  0
    9.2730    0.6505    2.3654 H   0  0  0  0  0  0  0  0  0  0  0  0
    7.5781    0.6485    2.9817 H   0  0  0  0  0  0  0  0  0  0  0  0
    7.1935    0.3756   -0.8579 H   0  0  0  0  0  0  0  0  0  0  0  0
    5.2713    1.8765   -2.1185 H   0  0  0  0  0  0  0  0  0  0  0  0
    3.3818    3.4488   -0.4629 H   0  0  0  0  0  0  0  0  0  0  0  0
    1.0765    2.8256   -1.1040 H   0  0  0  0  0  0  0  0  0  0  0  0
    0.1406    3.4232   -3.2193 H   0  0  0  0  0  0  0  0  0  0  0  0
    1.8672    3.9477   -3.2717 H   0  0  0  0  0  0  0  0  0  0  0  0
    2.4677    2.0475   -4.6934 H   0  0  0  0  0  0  0  0  0  0  0  0
    0.7526    2.2874   -5.1850 H   0  0  0  0  0  0  0  0  0  0  0  0
    1.7022   -0.0382   -3.6360 H   0  0  0  0  0  0  0  0  0  0  0  0
    0.1006    0.3279   -4.2908 H   0  0  0  0  0  0  0  0  0  0  0  0
   -1.6629    2.0027   -0.6983 H   0  0  0  0  0  0  0  0  0  0  0  0
    0.2191    1.7290    0.7424 H   0  0  0  0  0  0  0  0  0  0  0  0
   -1.2193    1.1320    1.5734 H   0  0  0  0  0  0  0  0  0  0  0  0
    1.8349   -0.2235   -0.1532 H   0  0  0  0  0  0  0  0  0  0  0  0
    2.8386   -2.3777    0.5340 H   0  0  0  0  0  0  0  0  0  0  0  0
    1.6789   -3.8192    2.1327 H   0  0  0  0  0  0  0  0  0  0  0  0
   -0.4729   -3.1164    3.0468 H   0  0  0  0  0  0  0  0  0  0  0  0
   -1.4936   -1.0163    2.4020 H   0  0  0  0  0  0  0  0  0  0  0  0
   -3.4761    0.7348   -0.3058 H   0  0  0  0  0  0  0  0  0  0  0  0
   -4.2726   -2.4076    0.3496 H   0  0  0  0  0  0  0  0  0  0  0  0
   -5.4633   -2.9332   -1.8013 H   0  0  0  0  0  0  0  0  0  0  0  0
   -4.2983   -1.9303   -2.7115 H   0  0  0  0  0  0  0  0  0  0  0  0
   -4.7440   -4.9963   -0.7426 H   0  0  0  0  0  0  0  0  0  0  0  0
   -3.3709   -7.0263   -1.0359 H   0  0  0  0  0  0  0  0  0  0  0  0
   -1.3793   -6.9937   -2.4484 H   0  0  0  0  0  0  0  0  0  0  0  0
   -0.7421   -4.9436   -3.5795 H   0  0  0  0  0  0  0  0  0  0  0  0
   -2.0910   -2.8411   -3.3424 H   0  0  0  0  0  0  0  0  0  0  0  0
   -5.0676   -0.0310   -1.3050 H   0  0  0  0  0  0  0  0  0  0  0  0
   -6.8465    1.2633    1.2647 H   0  0  0  0  0  0  0  0  0  0  0  0
   -6.7758    0.9402   -1.7688 H   0  0  0  0  0  0  0  0  0  0  0  0
   -5.1724    3.0081   -2.5800 H   0  0  0  0  0  0  0  0  0  0  0  0
   -6.9478    3.4745   -2.6029 H   0  0  0  0  0  0  0  0  0  0  0  0
   -5.7790    4.5214   -1.7929 H   0  0  0  0  0  0  0  0  0  0  0  0
   -8.6284   -0.3131   -0.6940 H   0  0  0  0  0  0  0  0  0  0  0  0
   -8.9996    1.1830    0.1557 H   0  0  0  0  0  0  0  0  0  0  0  0
   -8.4320   -1.5304    1.5704 H   0  0  0  0  0  0  0  0  0  0  0  0
  -10.0233   -0.8203    1.1656 H   0  0  0  0  0  0  0  0  0  0  0  0
   -9.4255   -0.5851    3.5031 H   0  0  0  0  0  0  0  0  0  0  0  0
   -9.6237    1.0453    2.7803 H   0  0  0  0  0  0  0  0  0  0  0  0
   -5.9913    2.3228    5.4117 H   0  0  0  0  0  0  0  0  0  0  0  0
   -5.2599    1.5102    3.9980 H   0  0  0  0  0  0  0  0  0  0  0  0
   -8.4293    3.3691    4.0756 H   0  0  0  0  0  0  0  0  0  0  0  0
   -9.2719    2.0984    5.0982 H   0  0  0  0  0  0  0  0  0  0  0  0
    5.7170    3.8481    0.2172 H   0  0  0  0  0  0  0  0  0  0  0  0
    5.6425    4.2940   -1.4767 H   0  0  0  0  0  0  0  0  0  0  0  0
    7.7526    4.5135   -0.8390 H   0  0  0  0  0  0  0  0  0  0  0  0
    7.2030    2.1292   -2.5904 H   0  0  0  0  0  0  0  0  0  0  0  0
    8.8913    2.3683   -2.0579 H   0  0  0  0  0  0  0  0  0  0  0  0
    8.0129    3.7410   -2.9191 H   0  0  0  0  0  0  0  0  0  0  0  0
    7.5323    2.5822    1.1251 H   0  0  0  0  0  0  0  0  0  0  0  0
    8.9380    3.5155    0.6300 H   0  0  0  0  0  0  0  0  0  0  0  0
    8.8073    1.8872   -0.0100 H   0  0  0  0  0  0  0  0  0  0  0  0
  1  2  1  0
  2  3  1  0
  3  4  1  0
  4  5  1  0
  5  6  1  0
  6  7  2  0
  6  8  1  0
  5  9  1  0
  9 10  1  0
 10 11  2  0
 10 12  1  0
 12 13  1  0
 13 14  1  0
 14 15  2  0
 14 16  1  0
 16 17  1  0
 17 18  1  0
 18 19  1  0
 19 20  1  0
 20 21  1  0
 21 22  2  0
 21 23  1  0
 23 24  1  0
 24 25  1  0
 25 26  2  0
 26 27  1  0
 27 28  2  0
 28 29  1  0
 29 30  2  0
 23 31  1  0
 31 32  1  0
 32 33  2  0
 32 34  1  0
 34 35  1  0
 35 36  1  0
 36 37  2  0
 37 38  1  0
 38 39  2  0
 39 40  1  0
 40 41  2  0
 34 42  1  0
 42 43  1  0
 43 44  2  0
 43 45  1  0
 45 46  1  0
 46 47  1  0
 47 48  2  0
 47 49  1  0
 45 50  1  0
 50 51  1  0
 51 52  1  0
 52 53  1  0
 53 54  2  3
 54 55  1  0
 54 56  1  0
 12 57  1  0
 57 58  1  0
 58 59  1  0
 58 60  1  0
 20 16  1  0
 30 25  1  0
 41 36  1  0
  1 61  1  0
  1 62  1  0
  1 63  1  0
  3 64  1  0
  3 65  1  0
  4 66  1  0
  4 67  1  0
  5 68  1  1
  8 69  1  0
  8 70  1  0
  9 71  1  0
 12 72  1  6
 13 73  1  0
 16 74  1  1
 17 75  1  0
 17 76  1  0
 18 77  1  0
 18 78  1  0
 19 79  1  0
 19 80  1  0
 23 81  1  6
 24 82  1  0
 24 83  1  0
 26 84  1  0
 27 85  1  0
 28 86  1  0
 29 87  1  0
 30 88  1  0
 31 89  1  0
 34 90  1  1
 35 91  1  0
 35 92  1  0
 37 93  1  0
 38 94  1  0
 39 95  1  0
 40 96  1  0
 41 97  1  0
 42 98  1  0
 45 99  1  1
 46100  1  0
 49101  1  0
 49102  1  0
 49103  1  0
 50104  1  0
 50105  1  0
 51106  1  0
 51107  1  0
 52108  1  0
 52109  1  0
 55110  1  0
 55111  1  0
 56112  1  0
 56113  1  0
 57114  1  0
 57115  1  0
 58116  1  0
 59117  1  0
 59118  1  0
 59119  1  0
 60120  1  0
 60121  1  0
 60122  1  0
M  END
>  <Ligand ID>  (1) 
LIG0003429

>  <Ligand>  (1) 
CHEMBL422779

>  <SMILES>  (1) 
CSCC[C@@H](C(=O)N)NC(=O)[C@@H](NC(=O)[C@H]1CCCN1C(=O)[C@H](Cc1ccccc1)NC(=O)[C@H](Cc1ccccc1)NC(=O)[C@@H](NC(=O)C)CCCN=C(N)N)CC(C)C

>  <CID>  (1) 
44337438.0

>  <ChEMBL ID>  (1) 
nan

>  <InChiKey>  (1) 
DPVIJCCNTAWHMH-ULWXFTFZSA-N

>  <InChi>  (1) 
InChI=1S/C42H62N10O7S/c1-26(2)23-32(38(56)48-30(36(43)54)19-22-60-4)50-40(58)35-18-12-21-52(35)41(59)34(25-29-15-9-6-10-16-29)51-39(57)33(24-28-13-7-5-8-14-28)49-37(55)31(47-27(3)53)17-11-20-46-42(44)45/h5-10,13-16,26,30-35H,11-12,17-25H2,1-4H3,(H2,43,54)(H,47,53)(H,48,56)(H,49,55)(H,50,58)(H,51,57)(H4,44,45,46)/t30-,31-,32-,33-,34-,35+/m0/s1

>  <IUPAC Name>  (1) 
(2R)-1-[(2S)-2-[[(2S)-2-[[(2S)-2-acetamido-5-(diaminomethylideneamino)pentanoyl]amino]-3-phenylpropanoyl]amino]-3-phenylpropanoyl]-N-[(2S)-1-[[(2S)-1-amino-4-methylsulfanyl-1-oxobutan-2-yl]amino]-4-methyl-1-oxopentan-2-yl]pyrrolidine-2-carboxamide

$$$$
