
     RDKit          3D

 68 75  0  0  0  0  0  0  0  0999 V2000
    8.7263    3.8910   -0.8695 Cl  0  0  0  0  0  0  0  0  0  0  0  0
    7.2291    3.0286   -0.6069 C   0  0  0  0  0  0  0  0  0  0  0  0
    7.1595    2.1911    0.4869 C   0  0  0  0  0  0  0  0  0  0  0  0
    5.9781    1.4916    0.7198 C   0  0  0  0  0  0  0  0  0  0  0  0
    4.8806    1.6284   -0.1308 C   0  0  0  0  0  0  0  0  0  0  0  0
    4.9547    2.4640   -1.2194 C   0  0  0  0  0  0  0  0  0  0  0  0
    6.1321    3.1488   -1.4348 C   0  0  0  0  0  0  0  0  0  0  0  0
    3.6897    0.8516    0.2010 C   0  0  0  0  0  0  0  0  0  0  0  0
    3.8689   -0.3723    0.8151 C   0  0  0  0  0  0  0  0  0  0  0  0
    2.8078   -1.1313    1.1439 N   0  0  0  0  0  0  0  0  0  0  0  0
    1.5503   -0.6874    0.8684 C   0  0  0  0  0  0  0  0  0  0  0  0
    1.3092    0.5051    0.2672 C   0  0  0  0  0  0  0  0  0  0  0  0
    2.4072    1.2891   -0.0725 C   0  0  0  0  0  0  0  0  0  0  0  0
   -0.0290    1.0513   -0.0602 C   0  0  0  0  0  0  0  0  0  0  0  0
   -1.1236    0.0393    0.0306 C   0  0  2  0  0  0  0  0  0  0  0  0
   -0.6422   -1.3655    0.2195 C   0  0  2  0  0  0  0  0  0  0  0  0
    0.4367   -1.5716    1.2546 C   0  0  1  0  0  0  0  0  0  0  0  0
    0.8515   -2.9024    0.8387 O   0  0  0  0  0  0  0  0  0  0  0  0
    0.9393   -2.8276   -0.5421 C   0  0  0  0  0  0  0  0  0  0  0  0
    0.0453   -1.8810   -0.9658 C   0  0  0  0  0  0  0  0  0  0  0  0
   -0.1865   -1.4902   -2.2375 C   0  0  0  0  0  0  0  0  0  0  0  0
   -1.1736   -0.4184   -2.4773 C   0  0  0  0  0  0  0  0  0  0  0  0
   -1.9212   -0.0053   -1.2644 C   0  0  1  0  0  0  0  0  0  0  0  0
   -3.0767   -0.8575   -1.1402 N   0  0  0  0  0  0  0  0  0  0  0  0
   -2.7621   -2.1795   -0.6807 C   0  0  0  0  0  0  0  0  0  0  0  0
   -1.8477   -2.2264    0.4852 C   0  0  0  0  0  0  0  0  0  0  0  0
   -3.9738   -0.8029   -2.2321 C   0  0  0  0  0  0  0  0  0  0  0  0
    0.5482   -2.1048   -3.2346 C   0  0  0  0  0  0  0  0  0  0  0  0
    1.4834   -3.0868   -2.8822 C   0  0  0  0  0  0  0  0  0  0  0  0
    1.6800   -3.4480   -1.5426 C   0  0  0  0  0  0  0  0  0  0  0  0
    2.6017   -4.4175   -1.1745 O   0  0  0  0  0  0  0  0  0  0  0  0
   -2.0484    0.2598    1.0412 O   0  0  0  0  0  0  0  0  0  0  0  0
   -2.7606    1.4138    1.0003 C   0  0  0  0  0  0  0  0  0  0  0  0
   -3.7018    1.4563    2.1831 C   0  0  0  0  0  0  0  0  0  0  0  0
   -3.3151    2.0130    3.3846 C   0  0  0  0  0  0  0  0  0  0  0  0
   -4.1381    2.0738    4.4884 C   0  0  0  0  0  0  0  0  0  0  0  0
   -5.4113    1.5542    4.3926 C   0  0  0  0  0  0  0  0  0  0  0  0
   -5.8155    0.9933    3.1987 C   0  0  0  0  0  0  0  0  0  0  0  0
   -4.9802    0.9349    2.0880 C   0  0  0  0  0  0  0  0  0  0  0  0
    8.0256    2.0836    1.1575 H   0  0  0  0  0  0  0  0  0  0  0  0
    5.9685    0.8501    1.5841 H   0  0  0  0  0  0  0  0  0  0  0  0
    4.1002    2.5631   -1.8716 H   0  0  0  0  0  0  0  0  0  0  0  0
    6.2110    3.8196   -2.2969 H   0  0  0  0  0  0  0  0  0  0  0  0
    4.8421   -0.7792    1.0597 H   0  0  0  0  0  0  0  0  0  0  0  0
    2.2821    2.2560   -0.5568 H   0  0  0  0  0  0  0  0  0  0  0  0
    0.0579    1.5167   -1.0634 H   0  0  0  0  0  0  0  0  0  0  0  0
   -0.1878    1.8826    0.6548 H   0  0  0  0  0  0  0  0  0  0  0  0
    0.1196   -1.5328    2.2863 H   0  0  0  0  0  0  0  0  0  0  0  0
   -1.9026   -0.8489   -3.2115 H   0  0  0  0  0  0  0  0  0  0  0  0
   -0.7084    0.4300   -3.0301 H   0  0  0  0  0  0  0  0  0  0  0  0
   -2.3023    1.0344   -1.4651 H   0  0  0  0  0  0  0  0  0  0  0  0
   -2.3308   -2.8039   -1.5036 H   0  0  0  0  0  0  0  0  0  0  0  0
   -3.7179   -2.6764   -0.4070 H   0  0  0  0  0  0  0  0  0  0  0  0
   -1.5446   -3.2829    0.6500 H   0  0  0  0  0  0  0  0  0  0  0  0
   -2.4072   -1.8265    1.3740 H   0  0  0  0  0  0  0  0  0  0  0  0
   -4.0262   -1.8256   -2.7082 H   0  0  0  0  0  0  0  0  0  0  0  0
   -3.7742   -0.0648   -3.0158 H   0  0  0  0  0  0  0  0  0  0  0  0
   -5.0164   -0.6352   -1.8626 H   0  0  0  0  0  0  0  0  0  0  0  0
    0.3823   -1.8121   -4.2600 H   0  0  0  0  0  0  0  0  0  0  0  0
    2.0600   -3.5706   -3.6587 H   0  0  0  0  0  0  0  0  0  0  0  0
    3.2515   -4.7563   -1.8710 H   0  0  0  0  0  0  0  0  0  0  0  0
   -3.4264    1.5574    0.1250 H   0  0  0  0  0  0  0  0  0  0  0  0
   -2.0877    2.2805    1.1437 H   0  0  0  0  0  0  0  0  0  0  0  0
   -2.2905    2.4113    3.4036 H   0  0  0  0  0  0  0  0  0  0  0  0
   -3.7388    2.5303    5.3812 H   0  0  0  0  0  0  0  0  0  0  0  0
   -6.0375    1.6140    5.2720 H   0  0  0  0  0  0  0  0  0  0  0  0
   -6.8382    0.5914    3.1672 H   0  0  0  0  0  0  0  0  0  0  0  0
   -5.3352    0.4913    1.1838 H   0  0  0  0  0  0  0  0  0  0  0  0
  1  2  1  0
  2  3  2  0
  3  4  1  0
  4  5  2  0
  5  6  1  0
  6  7  2  0
  5  8  1  0
  8  9  2  0
  9 10  1  0
 10 11  2  0
 11 12  1  0
 12 13  2  0
 12 14  1  0
 14 15  1  0
 15 16  1  0
 16 17  1  0
 17 18  1  0
 18 19  1  0
 19 20  2  0
 20 21  1  0
 21 22  1  0
 22 23  1  0
 23 24  1  0
 24 25  1  0
 25 26  1  0
 24 27  1  0
 21 28  2  0
 28 29  1  0
 29 30  2  0
 30 31  1  0
 15 32  1  1
 32 33  1  0
 33 34  1  0
 34 35  2  0
 35 36  1  0
 36 37  2  0
 37 38  1  0
 38 39  2  0
  7  2  1  0
 13  8  1  0
 23 15  1  0
 39 34  1  0
 17 11  1  0
 30 19  1  0
 16 26  1  1
 20 16  1  0
  3 40  1  0
  4 41  1  0
  6 42  1  0
  7 43  1  0
  9 44  1  0
 13 45  1  0
 14 46  1  0
 14 47  1  0
 17 48  1  1
 22 49  1  0
 22 50  1  0
 23 51  1  6
 25 52  1  0
 25 53  1  0
 26 54  1  0
 26 55  1  0
 27 56  1  0
 27 57  1  0
 27 58  1  0
 28 59  1  0
 29 60  1  0
 31 61  1  0
 33 62  1  0
 33 63  1  0
 35 64  1  0
 36 65  1  0
 37 66  1  0
 38 67  1  0
 39 68  1  0
M  END
>  <Ligand ID>  (1) 
LIG0004604

>  <Ligand>  (1) 
CHEMBL2179654

>  <SMILES>  (1) 
Clc1ccc(cc1)c1cnc2c(c1)C[C@@]1([C@@]34[C@H]2Oc2c4c(C[C@H]1N(CC3)C)ccc2O)OCc1ccccc1

>  <CID>  (1) 
71460943.0

>  <ChEMBL ID>  (1) 
nan

>  <InChiKey>  (1) 
YYSCTYIWGJPHIQ-OUDZLNJNSA-N

>  <InChi>  (1) 
InChI=1S/C33H29ClN2O3/c1-36-14-13-32-28-22-9-12-26(37)30(28)39-31(32)29-23(15-24(18-35-29)21-7-10-25(34)11-8-21)17-33(32,27(36)16-22)38-19-20-5-3-2-4-6-20/h2-12,15,18,27,31,37H,13-14,16-17,19H2,1H3/t27-,31+,32+,33-/m1/s1

>  <IUPAC Name>  (1) 
(1S,2S,10R,18R)-6-(4-chlorophenyl)-19-methyl-2-phenylmethoxy-11-oxa-8,19-diazahexacyclo[10.9.1.01,10.02,18.04,9.016,22]docosa-4(9),5,7,12,14,16(22)-hexaen-13-ol

$$$$
