
     RDKit          3D

 29 29  0  0  0  0  0  0  0  0999 V2000
    3.3907   -0.0019   -0.4881 N   0  0  0  0  0  0  0  0  0  0  0  0
    2.9857    0.5427    0.8116 C   0  0  0  0  0  0  0  0  0  0  0  0
    1.4493    0.7525    0.7740 C   0  0  1  0  0  0  0  0  0  0  0  0
    0.9544    1.6922   -0.2822 C   0  0  0  0  0  0  0  0  0  0  0  0
    0.6718    0.2741   -0.3993 C   0  0  2  0  0  0  0  0  0  0  0  0
   -0.5972   -0.3992   -0.4414 C   0  0  0  0  0  0  0  0  0  0  0  0
   -0.7552   -1.6095   -1.1428 C   0  0  0  0  0  0  0  0  0  0  0  0
   -1.9165   -2.3145   -1.1994 C   0  0  0  0  0  0  0  0  0  0  0  0
   -3.0385   -1.8687   -0.5524 C   0  0  0  0  0  0  0  0  0  0  0  0
   -2.9387   -0.6917    0.1467 C   0  0  0  0  0  0  0  0  0  0  0  0
   -1.7544    0.0497    0.2177 C   0  0  0  0  0  0  0  0  0  0  0  0
   -1.7853    1.3017    0.9607 C   0  0  0  0  0  0  0  0  0  0  0  0
    0.6910    0.0000    0.0000 Cl  0  0  0  0  0  0  0  0  0  0  0  0
    3.1427   -1.0270   -0.4843 H   0  0  0  0  0  0  0  0  0  0  0  0
    4.4544    0.0255   -0.4682 H   0  0  0  0  0  0  0  0  0  0  0  0
    3.5133    1.4716    1.0624 H   0  0  0  0  0  0  0  0  0  0  0  0
    3.2486   -0.2236    1.5422 H   0  0  0  0  0  0  0  0  0  0  0  0
    1.0786    0.6993    1.7892 H   0  0  0  0  0  0  0  0  0  0  0  0
    1.7587    2.1427   -0.9063 H   0  0  0  0  0  0  0  0  0  0  0  0
    0.2637    2.5052   -0.0302 H   0  0  0  0  0  0  0  0  0  0  0  0
    1.3894   -0.2163   -1.1543 H   0  0  0  0  0  0  0  0  0  0  0  0
    0.0993   -2.0405   -1.6920 H   0  0  0  0  0  0  0  0  0  0  0  0
   -1.9992   -3.2408   -1.7488 H   0  0  0  0  0  0  0  0  0  0  0  0
   -3.9548   -2.4323   -0.6011 H   0  0  0  0  0  0  0  0  0  0  0  0
   -3.8476   -0.3577    0.6537 H   0  0  0  0  0  0  0  0  0  0  0  0
   -2.7252    1.2687    1.6096 H   0  0  0  0  0  0  0  0  0  0  0  0
   -1.0326    1.5071    1.7006 H   0  0  0  0  0  0  0  0  0  0  0  0
   -2.0554    2.1908    0.3225 H   0  0  0  0  0  0  0  0  0  0  0  0
   -0.6910    0.0000    0.0000 H   0  0  0  0  0  0  0  0  0  0  0  0
  1  2  1  0
  2  3  1  0
  3  4  1  0
  4  5  1  0
  5  6  1  0
  6  7  2  0
  7  8  1  0
  8  9  2  0
  9 10  1  0
 10 11  2  0
 11 12  1  0
  5  3  1  0
 11  6  1  0
  1 14  1  0
  1 15  1  0
  2 16  1  0
  2 17  1  0
  3 18  1  1
  4 19  1  0
  4 20  1  0
  5 21  1  6
  7 22  1  0
  8 23  1  0
  9 24  1  0
 10 25  1  0
 12 26  1  0
 12 27  1  0
 12 28  1  0
 13 29  1  0
M  END
>  <Ligand ID>  (1) 
LIG0003855

>  <Ligand>  (1) 
CHEMBL450599

>  <SMILES>  (1) 
NC[C@H]1C[C@@H]1c1ccccc1C.Cl

>  <CID>  (1) 
44572754.0

>  <ChEMBL ID>  (1) 
nan

>  <InChiKey>  (1) 
UHSZVUMRRQOIGH-XQKZEKTMSA-N

>  <InChi>  (1) 
InChI=1S/C11H15N.ClH/c1-8-4-2-3-5-10(8)11-6-9(11)7-12;/h2-5,9,11H,6-7,12H2,1H3;1H/t9-,11+;/m1./s1

>  <IUPAC Name>  (1) 
[(1S,2S)-2-(2-methylphenyl)cyclopropyl]methanamine;hydrochloride

$$$$
