
     RDKit          3D

 22 21  0  0  0  0  0  0  0  0999 V2000
   -2.9726    1.4612   -0.6816 C   0  0  0  0  0  0  0  0  0  0  0  0
   -1.9224    0.4734   -0.1532 C   0  0  0  0  0  0  0  0  0  0  0  0
   -0.9355    0.2219   -1.0307 O   0  0  0  0  0  0  0  0  0  0  0  0
    0.0587   -0.6515   -0.6560 C   0  0  0  0  0  0  0  0  0  0  0  0
    1.2990   -0.0300   -0.5138 O   0  0  0  0  0  0  0  0  0  0  0  0
    1.7399    0.0137    0.7994 C   0  0  0  0  0  0  0  0  0  0  0  0
    3.0681    0.6794    0.9507 C   0  0  0  0  0  0  0  0  0  0  0  0
    0.1220   -1.9366   -1.4155 C   0  0  0  0  0  0  0  0  0  0  0  0
   -3.7104    1.6660    0.1117 H   0  0  0  0  0  0  0  0  0  0  0  0
   -2.4912    2.4096   -0.9693 H   0  0  0  0  0  0  0  0  0  0  0  0
   -3.5213    1.0033   -1.5319 H   0  0  0  0  0  0  0  0  0  0  0  0
   -2.5093   -0.3935    0.1965 H   0  0  0  0  0  0  0  0  0  0  0  0
   -1.4831    0.9689    0.7402 H   0  0  0  0  0  0  0  0  0  0  0  0
   -0.2443   -0.9542    0.3848 H   0  0  0  0  0  0  0  0  0  0  0  0
    1.7568   -1.0287    1.1835 H   0  0  0  0  0  0  0  0  0  0  0  0
    0.9383    0.5290    1.3932 H   0  0  0  0  0  0  0  0  0  0  0  0
    3.8274   -0.0722    1.2523 H   0  0  0  0  0  0  0  0  0  0  0  0
    3.0127    1.3914    1.8140 H   0  0  0  0  0  0  0  0  0  0  0  0
    3.4470    1.1670    0.0389 H   0  0  0  0  0  0  0  0  0  0  0  0
   -0.4725   -2.7614   -0.9619 H   0  0  0  0  0  0  0  0  0  0  0  0
    1.1938   -2.2685   -1.4356 H   0  0  0  0  0  0  0  0  0  0  0  0
   -0.2011   -1.8880   -2.4612 H   0  0  0  0  0  0  0  0  0  0  0  0
  1  2  1  0
  2  3  1  0
  3  4  1  0
  4  5  1  0
  5  6  1  0
  6  7  1  0
  4  8  1  0
  1  9  1  0
  1 10  1  0
  1 11  1  0
  2 12  1  0
  2 13  1  0
  4 14  1  0
  6 15  1  0
  6 16  1  0
  7 17  1  0
  7 18  1  0
  7 19  1  0
  8 20  1  0
  8 21  1  0
  8 22  1  0
M  END
>  <Ligand ID>  (1) 
LIG0000350

>  <Ligand>  (1) 
Acetal

>  <SMILES>  (1) 
CCOC(OCC)C

>  <CID>  (1) 
7765.0

>  <ChEMBL ID>  (1) 
nan

>  <InChiKey>  (1) 
DHKHKXVYLBGOIT-UHFFFAOYSA-N

>  <InChi>  (1) 
InChI=1S/C6H14O2/c1-4-7-6(3)8-5-2/h6H,4-5H2,1-3H3

>  <IUPAC Name>  (1) 
1,1-diethoxyethane

$$$$
