
     RDKit          3D

 79 79  0  0  0  0  0  0  0  0999 V2000
   -0.9855   -0.0320    0.0614 C   0  0  0  0  0  0  0  0  0  0  0  0
    0.4423    0.2623   -0.2048 C   0  0  0  0  0  0  0  0  0  0  0  0
    0.8358    1.4259   -0.4429 O   0  0  0  0  0  0  0  0  0  0  0  0
    1.4283   -0.7346   -0.2059 O   0  0  0  0  0  0  0  0  0  0  0  0
   10.2941   -2.3976    1.1413 O   0  0  0  0  0  0  0  0  0  0  0  0
    9.5701   -1.2525    1.5445 C   0  0  0  0  0  0  0  0  0  0  0  0
    8.5941   -0.9547    0.4683 C   0  0  0  0  0  0  0  0  0  0  0  0
    7.2475   -1.2401    0.5610 C   0  0  0  0  0  0  0  0  0  0  0  0
    6.3455   -0.9580   -0.4496 C   0  0  0  0  0  0  0  0  0  0  0  0
    6.8608   -0.3657   -1.5825 C   0  0  0  0  0  0  0  0  0  0  0  0
    8.2222   -0.0643   -1.7056 C   0  0  0  0  0  0  0  0  0  0  0  0
    9.1018   -0.3527   -0.6879 C   0  0  0  0  0  0  0  0  0  0  0  0
   10.4581   -0.0681   -0.7734 O   0  0  0  0  0  0  0  0  0  0  0  0
    4.9094   -1.2913   -0.2754 C   0  0  2  0  0  0  0  0  0  0  0  0
    4.0419   -0.6948   -1.3549 C   0  0  0  0  0  0  0  0  0  0  0  0
    3.9581    0.6787   -1.4074 N   0  0  0  0  0  0  0  0  0  0  0  0
    3.3616    1.5024   -0.4715 C   0  0  0  0  0  0  0  0  0  0  0  0
    1.8908    1.5821   -0.3021 C   0  0  0  0  0  0  0  0  0  0  0  0
    1.1334    0.3509    0.0416 C   0  0  0  0  0  0  0  0  0  0  0  0
   -0.3483    0.7707    0.2303 C   0  0  0  0  0  0  0  0  0  0  0  0
   -1.1085   -0.4848    0.5679 C   0  0  0  0  0  0  0  0  0  0  0  0
   -2.5942   -0.1472    0.8096 C   0  0  0  0  0  0  0  0  0  0  0  0
   -2.5963    0.7277    1.8629 O   0  0  0  0  0  0  0  0  0  0  0  0
   -3.8168    1.1970    2.2815 C   0  0  0  0  0  0  0  0  0  0  0  0
   -4.5895    1.9705    1.2602 C   0  0  0  0  0  0  0  0  0  0  0  0
   -5.7958    2.4248    1.7283 O   0  0  0  0  0  0  0  0  0  0  0  0
   -6.6611    1.4295    2.0646 C   0  0  0  0  0  0  0  0  0  0  0  0
   -7.0447    0.5680    0.8920 C   0  0  0  0  0  0  0  0  0  0  0  0
   -6.3584   -0.5658    0.5434 C   0  0  0  0  0  0  0  0  0  0  0  0
   -6.7654   -1.3057   -0.5508 C   0  0  0  0  0  0  0  0  0  0  0  0
   -6.0551   -2.5516   -0.9815 C   0  0  0  0  0  0  0  0  0  0  0  0
   -7.8615   -0.8998   -1.2881 C   0  0  0  0  0  0  0  0  0  0  0  0
   -8.5670    0.2242   -0.9681 C   0  0  0  0  0  0  0  0  0  0  0  0
   -8.1440    0.9521    0.1318 C   0  0  0  0  0  0  0  0  0  0  0  0
   -9.7478    0.7164   -1.7170 C   0  0  0  0  0  0  0  0  0  0  0  0
    4.4594   -0.9480    1.0006 O   0  0  0  0  0  0  0  0  0  0  0  0
   -1.2474    0.4094    1.0653 H   0  0  0  0  0  0  0  0  0  0  0  0
   -1.1393   -1.1150    0.1675 H   0  0  0  0  0  0  0  0  0  0  0  0
   -1.6475    0.3541   -0.7399 H   0  0  0  0  0  0  0  0  0  0  0  0
    2.3132   -0.5702    0.2993 H   0  0  0  0  0  0  0  0  0  0  0  0
   10.9145   -2.1643    0.3863 H   0  0  0  0  0  0  0  0  0  0  0  0
    9.0625   -1.5325    2.4903 H   0  0  0  0  0  0  0  0  0  0  0  0
   10.2925   -0.4344    1.6262 H   0  0  0  0  0  0  0  0  0  0  0  0
    6.9366   -1.7117    1.5017 H   0  0  0  0  0  0  0  0  0  0  0  0
    6.2469   -0.1143   -2.4059 H   0  0  0  0  0  0  0  0  0  0  0  0
    8.5794    0.4000   -2.6136 H   0  0  0  0  0  0  0  0  0  0  0  0
   10.8119    0.8292   -0.4129 H   0  0  0  0  0  0  0  0  0  0  0  0
    4.8094   -2.3856   -0.3567 H   0  0  0  0  0  0  0  0  0  0  0  0
    4.4849   -1.0649   -2.3298 H   0  0  0  0  0  0  0  0  0  0  0  0
    3.0780   -1.2145   -1.2993 H   0  0  0  0  0  0  0  0  0  0  0  0
    4.2147    1.1314   -2.3261 H   0  0  0  0  0  0  0  0  0  0  0  0
    3.8591    1.4496    0.5657 H   0  0  0  0  0  0  0  0  0  0  0  0
    3.6791    2.5701   -0.7517 H   0  0  0  0  0  0  0  0  0  0  0  0
    1.3818    1.9859   -1.2415 H   0  0  0  0  0  0  0  0  0  0  0  0
    1.6522    2.4129    0.4376 H   0  0  0  0  0  0  0  0  0  0  0  0
    1.4478   -0.1769    0.9360 H   0  0  0  0  0  0  0  0  0  0  0  0
    1.0606   -0.2898   -0.8852 H   0  0  0  0  0  0  0  0  0  0  0  0
   -0.7042    1.1018   -0.7733 H   0  0  0  0  0  0  0  0  0  0  0  0
   -0.4671    1.5338    0.9953 H   0  0  0  0  0  0  0  0  0  0  0  0
   -0.7471   -0.9352    1.5140 H   0  0  0  0  0  0  0  0  0  0  0  0
   -1.0117   -1.2576   -0.2188 H   0  0  0  0  0  0  0  0  0  0  0  0
   -3.1405   -1.0952    0.9929 H   0  0  0  0  0  0  0  0  0  0  0  0
   -2.9567    0.2688   -0.1536 H   0  0  0  0  0  0  0  0  0  0  0  0
   -4.4386    0.4061    2.7564 H   0  0  0  0  0  0  0  0  0  0  0  0
   -3.6059    1.9263    3.1274 H   0  0  0  0  0  0  0  0  0  0  0  0
   -4.0088    2.8724    0.9446 H   0  0  0  0  0  0  0  0  0  0  0  0
   -4.8223    1.3380    0.3592 H   0  0  0  0  0  0  0  0  0  0  0  0
   -7.6458    1.8850    2.4055 H   0  0  0  0  0  0  0  0  0  0  0  0
   -6.3589    0.7593    2.8781 H   0  0  0  0  0  0  0  0  0  0  0  0
   -5.5159   -0.9002    1.0949 H   0  0  0  0  0  0  0  0  0  0  0  0
   -5.5981   -2.9761   -0.0684 H   0  0  0  0  0  0  0  0  0  0  0  0
   -5.2823   -2.2573   -1.7097 H   0  0  0  0  0  0  0  0  0  0  0  0
   -6.7859   -3.2985   -1.3738 H   0  0  0  0  0  0  0  0  0  0  0  0
   -8.1583   -1.4996   -2.1429 H   0  0  0  0  0  0  0  0  0  0  0  0
   -8.6819    1.8530    0.4198 H   0  0  0  0  0  0  0  0  0  0  0  0
   -9.4296    1.4761   -2.4830 H   0  0  0  0  0  0  0  0  0  0  0  0
  -10.3545   -0.0917   -2.1272 H   0  0  0  0  0  0  0  0  0  0  0  0
  -10.3910    1.2997   -1.0026 H   0  0  0  0  0  0  0  0  0  0  0  0
    5.1985   -0.6519    1.5736 H   0  0  0  0  0  0  0  0  0  0  0  0
  1  2  1  0
  2  3  2  0
  2  4  1  0
  5  6  1  0
  6  7  1  0
  7  8  2  0
  8  9  1  0
  9 10  2  0
 10 11  1  0
 11 12  2  0
 12 13  1  0
  9 14  1  0
 14 15  1  0
 15 16  1  0
 16 17  1  0
 17 18  1  0
 18 19  1  0
 19 20  1  0
 20 21  1  0
 21 22  1  0
 22 23  1  0
 23 24  1  0
 24 25  1  0
 25 26  1  0
 26 27  1  0
 27 28  1  0
 28 29  2  0
 29 30  1  0
 30 31  1  0
 30 32  2  0
 32 33  1  0
 33 34  2  0
 33 35  1  0
 14 36  1  0
 12  7  1  0
 34 28  1  0
  1 37  1  0
  1 38  1  0
  1 39  1  0
  4 40  1  0
  5 41  1  0
  6 42  1  0
  6 43  1  0
  8 44  1  0
 10 45  1  0
 11 46  1  0
 13 47  1  0
 14 48  1  1
 15 49  1  0
 15 50  1  0
 16 51  1  0
 17 52  1  0
 17 53  1  0
 18 54  1  0
 18 55  1  0
 19 56  1  0
 19 57  1  0
 20 58  1  0
 20 59  1  0
 21 60  1  0
 21 61  1  0
 22 62  1  0
 22 63  1  0
 24 64  1  0
 24 65  1  0
 25 66  1  0
 25 67  1  0
 27 68  1  0
 27 69  1  0
 29 70  1  0
 31 71  1  0
 31 72  1  0
 31 73  1  0
 32 74  1  0
 34 75  1  0
 35 76  1  0
 35 77  1  0
 35 78  1  0
 36 79  1  0
M  END
>  <Ligand ID>  (1) 
LIG0003746

>  <Ligand>  (1) 
CHEMBL1084891

>  <SMILES>  (1) 
CC(=O)O.OCc1cc(ccc1O)[C@H](CNCCCCCCOCCOCc1cc(C)cc(c1)C)O

>  <CID>  (1) 
46832799.0

>  <ChEMBL ID>  (1) 
nan

>  <InChiKey>  (1) 
LKTHORNZFCSYDK-SNYZSRNZSA-N

>  <InChi>  (1) 
InChI=1S/C26H39NO5.C2H4O2/c1-20-13-21(2)15-22(14-20)19-32-12-11-31-10-6-4-3-5-9-27-17-26(30)23-7-8-25(29)24(16-23)18-28;1-2(3)4/h7-8,13-16,26-30H,3-6,9-12,17-19H2,1-2H3;1H3,(H,3,4)/t26-;/m0./s1

>  <IUPAC Name>  (1) 
acetic acid;4-[(1R)-2-[6-[2-[(3,5-dimethylphenyl)methoxy]ethoxy]hexylamino]-1-hydroxyethyl]-2-(hydroxymethyl)phenol

$$$$
