
     RDKit          3D

 31 31  0  0  0  0  0  0  0  0999 V2000
    4.0721    2.7161   -0.9614 O   0  0  0  0  0  0  0  0  0  0  0  0
    4.5849    1.4588   -0.7110 C   0  0  0  0  0  0  0  0  0  0  0  0
    5.8419    1.3254   -0.8732 O   0  0  0  0  0  0  0  0  0  0  0  0
    3.7705    0.3302   -0.2861 C   0  0  0  0  0  0  0  0  0  0  0  0
    2.4713    0.5250   -0.1335 C   0  0  0  0  0  0  0  0  0  0  0  0
    1.6503   -0.5821    0.2868 C   0  0  0  0  0  0  0  0  0  0  0  0
    2.2242   -1.7052    0.4924 O   0  0  0  0  0  0  0  0  0  0  0  0
    0.2439   -0.4688    0.4777 N   0  0  0  0  0  0  0  0  0  0  0  0
   -0.4982    0.7795    0.2656 C   0  0  0  0  0  0  0  0  0  0  0  0
   -1.9098    0.2823    0.1376 C   0  0  2  0  0  0  0  0  0  0  0  0
   -1.9215   -0.7774    1.2195 C   0  0  0  0  0  0  0  0  0  0  0  0
   -0.6465   -1.5164    0.8932 C   0  0  1  0  0  0  0  0  0  0  0  0
   -0.8828   -2.5167   -0.1766 C   0  0  0  0  0  0  0  0  0  0  0  0
   -0.3171   -2.3696   -1.2879 O   0  0  0  0  0  0  0  0  0  0  0  0
   -1.7290   -3.5785    0.1105 O   0  0  0  0  0  0  0  0  0  0  0  0
   -2.0713   -0.2975   -1.1810 N   0  0  0  0  0  0  0  0  0  0  0  0
   -2.9370    1.3187    0.3095 C   0  0  0  0  0  0  0  0  0  0  0  0
   -3.7953    1.6252   -0.5603 O   0  0  0  0  0  0  0  0  0  0  0  0
   -2.9603    2.0092    1.5214 O   0  0  0  0  0  0  0  0  0  0  0  0
    4.6042    3.5011   -1.3099 H   0  0  0  0  0  0  0  0  0  0  0  0
    4.2310   -0.6119   -0.1104 H   0  0  0  0  0  0  0  0  0  0  0  0
    2.0433    1.5026   -0.3236 H   0  0  0  0  0  0  0  0  0  0  0  0
   -0.1814    1.3087   -0.6337 H   0  0  0  0  0  0  0  0  0  0  0  0
   -0.3705    1.4159    1.1794 H   0  0  0  0  0  0  0  0  0  0  0  0
   -2.8232   -1.4185    1.1915 H   0  0  0  0  0  0  0  0  0  0  0  0
   -1.7789   -0.2403    2.1837 H   0  0  0  0  0  0  0  0  0  0  0  0
   -0.3379   -2.0449    1.8103 H   0  0  0  0  0  0  0  0  0  0  0  0
   -2.0434   -4.1961   -0.6536 H   0  0  0  0  0  0  0  0  0  0  0  0
   -1.8349    0.4073   -1.8992 H   0  0  0  0  0  0  0  0  0  0  0  0
   -2.9659   -0.7950   -1.3018 H   0  0  0  0  0  0  0  0  0  0  0  0
   -3.7327    2.6127    1.8119 H   0  0  0  0  0  0  0  0  0  0  0  0
  1  2  1  0
  2  3  2  0
  2  4  1  0
  4  5  2  0
  5  6  1  0
  6  7  2  0
  6  8  1  0
  8  9  1  0
  9 10  1  0
 10 11  1  0
 11 12  1  0
 12 13  1  0
 13 14  2  0
 13 15  1  0
 10 16  1  6
 10 17  1  0
 17 18  2  0
 17 19  1  0
 12  8  1  0
  1 20  1  0
  4 21  1  0
  5 22  1  0
  9 23  1  0
  9 24  1  0
 11 25  1  0
 11 26  1  0
 12 27  1  1
 15 28  1  0
 16 29  1  0
 16 30  1  0
 19 31  1  0
M  END
>  <Ligand ID>  (1) 
LIG0000493

>  <Ligand>  (1) 
FP0429

>  <SMILES>  (1) 
OC(=O)/C=C/C(=O)N1C[C@](C[C@H]1C(=O)O)(N)C(=O)O

>  <CID>  (1) 
11565290.0

>  <ChEMBL ID>  (1) 
nan

>  <InChiKey>  (1) 
ZALHFQNLXQORTH-FGLATXDZSA-N

>  <InChi>  (1) 
InChI=1S/C10H12N2O7/c11-10(9(18)19)3-5(8(16)17)12(4-10)6(13)1-2-7(14)15/h1-2,5H,3-4,11H2,(H,14,15)(H,16,17)(H,18,19)/b2-1+/t5-,10-/m0/s1

>  <IUPAC Name>  (1) 
(2S,4S)-4-amino-1-[(E)-3-carboxyprop-2-enoyl]pyrrolidine-2,4-dicarboxylic acid

$$$$
