
     RDKit          3D

 43 46  0  0  0  0  0  0  0  0999 V2000
    6.0199   -3.6222   -0.5417 O   0  0  0  0  0  0  0  0  0  0  0  0
    6.2915   -2.2864   -0.7120 N   0  0  0  0  0  0  0  0  0  0  0  0
    7.3580   -1.9311   -1.2486 O   0  0  0  0  0  0  0  0  0  0  0  0
    5.3463   -1.3170   -0.2699 C   0  0  0  0  0  0  0  0  0  0  0  0
    5.6061    0.0266   -0.4359 C   0  0  0  0  0  0  0  0  0  0  0  0
    4.6553    0.9202    0.0106 C   0  0  0  0  0  0  0  0  0  0  0  0
    3.4680    0.5111    0.6104 C   0  0  0  0  0  0  0  0  0  0  0  0
    3.2225   -0.8396    0.7694 C   0  0  0  0  0  0  0  0  0  0  0  0
    4.1736   -1.7375    0.3229 C   0  0  0  0  0  0  0  0  0  0  0  0
    2.5407    1.5739    1.0411 C   0  0  0  0  0  0  0  0  0  0  0  0
    1.4107    1.9354   -0.3235 S   0  0  0  0  0  0  0  0  0  0  0  0
    0.3357    0.5185   -0.6455 C   0  0  0  0  0  0  0  0  0  0  0  0
    0.5634   -0.5120   -1.4809 N   0  0  0  0  0  0  0  0  0  0  0  0
   -0.4556   -1.3403   -1.4301 N   0  0  0  0  0  0  0  0  0  0  0  0
   -1.3408   -0.8623   -0.5743 C   0  0  0  0  0  0  0  0  0  0  0  0
   -0.8821    0.2930   -0.0669 N   0  0  0  0  0  0  0  0  0  0  0  0
   -1.4485    1.2012    0.8903 C   0  0  0  0  0  0  0  0  0  0  0  0
   -2.3006    2.2619    0.2589 C   0  0  0  0  0  0  0  0  0  0  0  0
   -3.6646    2.2519    0.0654 C   0  0  0  0  0  0  0  0  0  0  0  0
   -3.9654    3.4663   -0.5604 C   0  0  0  0  0  0  0  0  0  0  0  0
   -2.7477    4.0980   -0.6857 C   0  0  0  0  0  0  0  0  0  0  0  0
   -1.7779    3.3749   -0.1981 O   0  0  0  0  0  0  0  0  0  0  0  0
   -2.6166   -1.4720   -0.2197 C   0  0  0  0  0  0  0  0  0  0  0  0
   -2.6817   -2.5249    0.6915 C   0  0  0  0  0  0  0  0  0  0  0  0
   -3.9245   -3.0787    1.0031 C   0  0  0  0  0  0  0  0  0  0  0  0
   -5.0454   -2.5507    0.3863 C   0  0  0  0  0  0  0  0  0  0  0  0
   -4.9210   -1.5041   -0.5110 C   0  0  0  0  0  0  0  0  0  0  0  0
   -3.7159   -0.9839   -0.7987 N   0  0  0  0  0  0  0  0  0  0  0  0
    6.5286    0.3655   -0.9023 H   0  0  0  0  0  0  0  0  0  0  0  0
    4.8601    1.9721   -0.1195 H   0  0  0  0  0  0  0  0  0  0  0  0
    2.2944   -1.1291    1.2375 H   0  0  0  0  0  0  0  0  0  0  0  0
    4.0046   -2.7913    0.4358 H   0  0  0  0  0  0  0  0  0  0  0  0
    2.0143    1.3034    1.9809 H   0  0  0  0  0  0  0  0  0  0  0  0
    3.1006    2.5173    1.2474 H   0  0  0  0  0  0  0  0  0  0  0  0
   -0.6641    1.6789    1.5394 H   0  0  0  0  0  0  0  0  0  0  0  0
   -2.1248    0.6778    1.6197 H   0  0  0  0  0  0  0  0  0  0  0  0
   -4.3574    1.4805    0.3358 H   0  0  0  0  0  0  0  0  0  0  0  0
   -4.9458    3.7935   -0.8598 H   0  0  0  0  0  0  0  0  0  0  0  0
   -2.5774    5.0765   -1.1297 H   0  0  0  0  0  0  0  0  0  0  0  0
   -1.7824   -2.9153    1.1570 H   0  0  0  0  0  0  0  0  0  0  0  0
   -4.0211   -3.8997    1.7072 H   0  0  0  0  0  0  0  0  0  0  0  0
   -6.0529   -2.9358    0.5840 H   0  0  0  0  0  0  0  0  0  0  0  0
   -5.7798   -1.0642   -1.0145 H   0  0  0  0  0  0  0  0  0  0  0  0
  1  2  1  0
  2  3  2  0
  2  4  1  0
  4  5  2  0
  5  6  1  0
  6  7  2  0
  7  8  1  0
  8  9  2  0
  7 10  1  0
 10 11  1  0
 11 12  1  0
 12 13  2  0
 13 14  1  0
 14 15  2  0
 15 16  1  0
 16 17  1  0
 17 18  1  0
 18 19  2  0
 19 20  1  0
 20 21  2  0
 21 22  1  0
 15 23  1  0
 23 24  2  0
 24 25  1  0
 25 26  2  0
 26 27  1  0
 27 28  2  0
  9  4  1  0
 16 12  1  0
 22 18  1  0
 28 23  1  0
  5 29  1  0
  6 30  1  0
  8 31  1  0
  9 32  1  0
 10 33  1  0
 10 34  1  0
 17 35  1  0
 17 36  1  0
 19 37  1  0
 20 38  1  0
 21 39  1  0
 24 40  1  0
 25 41  1  0
 26 42  1  0
 27 43  1  0
M  CHG  2   1  -1   2   1
M  END
>  <Ligand ID>  (1) 
LIG0002767

>  <Ligand>  (1) 
KUC104176N

>  <SMILES>  (1) 
[O-][N+](=O)c1ccc(cc1)CSc1nnc(n1Cc1ccco1)c1ccccn1

>  <CID>  (1) 
1423675.0

>  <ChEMBL ID>  (1) 
nan

>  <InChiKey>  (1) 
YHBQHYVJLAAZRN-UHFFFAOYSA-N

>  <InChi>  (1) 
InChI=1S/C19H15N5O3S/c25-24(26)15-8-6-14(7-9-15)13-28-19-22-21-18(17-5-1-2-10-20-17)23(19)12-16-4-3-11-27-16/h1-11H,12-13H2

>  <IUPAC Name>  (1) 
2-[4-(furan-2-ylmethyl)-5-[(4-nitrophenyl)methylsulfanyl]-1,2,4-triazol-3-yl]pyridine

$$$$
