
     RDKit          3D

 29 29  0  0  0  0  0  0  0  0999 V2000
   -3.0234    1.8946    0.7772 N   0  0  0  0  0  0  0  0  0  0  0  0
   -3.0902    1.0118   -0.3689 C   0  0  0  0  0  0  0  0  0  0  0  0
   -2.1295   -0.1224   -0.2076 C   0  0  1  0  0  0  0  0  0  0  0  0
   -2.0092   -1.1830   -1.2719 C   0  0  0  0  0  0  0  0  0  0  0  0
   -0.9655   -0.1359   -1.1884 C   0  0  2  0  0  0  0  0  0  0  0  0
    0.3560   -0.3875   -0.5525 C   0  0  0  0  0  0  0  0  0  0  0  0
    0.4277   -1.3458    0.4375 C   0  0  0  0  0  0  0  0  0  0  0  0
    1.6283   -1.6040    1.0452 C   0  0  0  0  0  0  0  0  0  0  0  0
    2.7822   -0.9168    0.6832 C   0  0  0  0  0  0  0  0  0  0  0  0
    2.6872    0.0361   -0.3079 C   0  0  0  0  0  0  0  0  0  0  0  0
    1.4919    0.3032   -0.9232 C   0  0  0  0  0  0  0  0  0  0  0  0
    3.8775    0.8256   -0.7629 C   0  0  0  0  0  0  0  0  0  0  0  0
    4.7120    1.0560    0.3078 F   0  0  0  0  0  0  0  0  0  0  0  0
    4.4852    0.1911   -1.8036 F   0  0  0  0  0  0  0  0  0  0  0  0
    3.4530    2.0670   -1.2392 F   0  0  0  0  0  0  0  0  0  0  0  0
    0.6848    0.0000    0.0000 Cl  0  0  0  0  0  0  0  0  0  0  0  0
   -2.6919    1.3633    1.6214 H   0  0  0  0  0  0  0  0  0  0  0  0
   -3.9746    2.2687    0.9830 H   0  0  0  0  0  0  0  0  0  0  0  0
   -4.1226    0.6016   -0.3997 H   0  0  0  0  0  0  0  0  0  0  0  0
   -2.8647    1.5684   -1.2964 H   0  0  0  0  0  0  0  0  0  0  0  0
   -1.9323   -0.4995    0.8249 H   0  0  0  0  0  0  0  0  0  0  0  0
   -1.8519   -2.2216   -0.9669 H   0  0  0  0  0  0  0  0  0  0  0  0
   -2.7033   -1.0959   -2.1409 H   0  0  0  0  0  0  0  0  0  0  0  0
   -0.9383    0.6475   -1.9727 H   0  0  0  0  0  0  0  0  0  0  0  0
   -0.4372   -1.9097    0.7581 H   0  0  0  0  0  0  0  0  0  0  0  0
    1.6799   -2.3643    1.8291 H   0  0  0  0  0  0  0  0  0  0  0  0
    3.7412   -1.0937    1.1390 H   0  0  0  0  0  0  0  0  0  0  0  0
    1.4127    1.0453   -1.6966 H   0  0  0  0  0  0  0  0  0  0  0  0
   -0.6848    0.0000    0.0000 H   0  0  0  0  0  0  0  0  0  0  0  0
  1  2  1  0
  2  3  1  0
  3  4  1  0
  4  5  1  0
  5  6  1  0
  6  7  2  0
  7  8  1  0
  8  9  2  0
  9 10  1  0
 10 11  2  0
 10 12  1  0
 12 13  1  0
 12 14  1  0
 12 15  1  0
  5  3  1  0
 11  6  1  0
  1 17  1  0
  1 18  1  0
  2 19  1  0
  2 20  1  0
  3 21  1  1
  4 22  1  0
  4 23  1  0
  5 24  1  6
  7 25  1  0
  8 26  1  0
  9 27  1  0
 11 28  1  0
 16 29  1  0
M  END
>  <Ligand ID>  (1) 
LIG0002373

>  <Ligand>  (1) 
CHEMBL490064

>  <SMILES>  (1) 
NC[C@H]1C[C@@H]1c1cccc(c1)C(F)(F)F.Cl

>  <CID>  (1) 
44572803.0

>  <ChEMBL ID>  (1) 
nan

>  <InChiKey>  (1) 
OCWIKOKDXHQKGG-GHXDPTCOSA-N

>  <InChi>  (1) 
InChI=1S/C11H12F3N.ClH/c12-11(13,14)9-3-1-2-7(4-9)10-5-8(10)6-15;/h1-4,8,10H,5-6,15H2;1H/t8-,10-;/m1./s1

>  <IUPAC Name>  (1) 
[(1S,2S)-2-[3-(trifluoromethyl)phenyl]cyclopropyl]methanamine;hydrochloride

$$$$
