
     RDKit          3D

 32 33  0  0  0  0  0  0  0  0999 V2000
   -3.5116    1.3345    1.4168 C   0  0  0  0  0  0  0  0  0  0  0  0
   -2.5904    0.7678    0.3275 C   0  0  1  0  0  0  0  0  0  0  0  0
   -1.5314   -0.0360    1.0092 C   0  0  0  0  0  0  0  0  0  0  0  0
   -0.5781   -0.6487    0.1084 N   0  0  0  0  0  0  0  0  0  0  0  0
   -0.8844   -1.7312   -0.8033 C   0  0  0  0  0  0  0  0  0  0  0  0
    0.4267   -2.4707   -0.9239 C   0  0  0  0  0  0  0  0  0  0  0  0
    1.4083   -1.3970   -0.6867 C   0  0  0  0  0  0  0  0  0  0  0  0
    0.7931   -0.3267   -0.0724 C   0  0  0  0  0  0  0  0  0  0  0  0
    1.4924    0.8354    0.2698 C   0  0  0  0  0  0  0  0  0  0  0  0
    2.8395    0.8745   -0.0339 C   0  0  0  0  0  0  0  0  0  0  0  0
    3.4504   -0.2082   -0.6537 C   0  0  0  0  0  0  0  0  0  0  0  0
    2.7475   -1.3532   -0.9867 C   0  0  0  0  0  0  0  0  0  0  0  0
    4.7847   -0.0750   -0.9136 F   0  0  0  0  0  0  0  0  0  0  0  0
    3.6299    2.0910    0.3056 C   0  0  0  0  0  0  0  0  0  0  0  0
    2.8073    3.0234    0.9088 F   0  0  0  0  0  0  0  0  0  0  0  0
    4.7027    1.7884    1.1196 F   0  0  0  0  0  0  0  0  0  0  0  0
    4.0834    2.6279   -0.8922 F   0  0  0  0  0  0  0  0  0  0  0  0
   -3.3820    0.0678   -0.6273 N   0  0  0  0  0  0  0  0  0  0  0  0
   -3.6794    2.3901    1.1759 H   0  0  0  0  0  0  0  0  0  0  0  0
   -4.5009    0.8198    1.3469 H   0  0  0  0  0  0  0  0  0  0  0  0
   -3.0898    1.1896    2.4247 H   0  0  0  0  0  0  0  0  0  0  0  0
   -2.0749    1.6080   -0.2027 H   0  0  0  0  0  0  0  0  0  0  0  0
   -2.0050   -0.8675    1.5942 H   0  0  0  0  0  0  0  0  0  0  0  0
   -1.0358    0.6216    1.7543 H   0  0  0  0  0  0  0  0  0  0  0  0
   -1.1935   -1.3516   -1.8010 H   0  0  0  0  0  0  0  0  0  0  0  0
   -1.6342   -2.4351   -0.3796 H   0  0  0  0  0  0  0  0  0  0  0  0
    0.5529   -2.9708   -1.8982 H   0  0  0  0  0  0  0  0  0  0  0  0
    0.5016   -3.1637   -0.0669 H   0  0  0  0  0  0  0  0  0  0  0  0
    0.9831    1.6681    0.7563 H   0  0  0  0  0  0  0  0  0  0  0  0
    3.2760   -2.1680   -1.4711 H   0  0  0  0  0  0  0  0  0  0  0  0
   -3.4890   -0.9386   -0.5120 H   0  0  0  0  0  0  0  0  0  0  0  0
   -3.2990    0.4339   -1.5928 H   0  0  0  0  0  0  0  0  0  0  0  0
  1  2  1  0
  2  3  1  0
  3  4  1  0
  4  5  1  0
  5  6  1  0
  6  7  1  0
  7  8  2  0
  8  9  1  0
  9 10  2  0
 10 11  1  0
 11 12  2  0
 11 13  1  0
 10 14  1  0
 14 15  1  0
 14 16  1  0
 14 17  1  0
  2 18  1  0
  8  4  1  0
 12  7  1  0
  1 19  1  0
  1 20  1  0
  1 21  1  0
  2 22  1  6
  3 23  1  0
  3 24  1  0
  5 25  1  0
  5 26  1  0
  6 27  1  0
  6 28  1  0
  9 29  1  0
 12 30  1  0
 18 31  1  0
 18 32  1  0
M  END
>  <Ligand ID>  (1) 
LIG0002161

>  <Ligand>  (1) 
CHEMBL80246

>  <SMILES>  (1) 
C[C@@H](CN1CCc2c1cc(c(c2)F)C(F)(F)F)N

>  <CID>  (1) 
18735309.0

>  <ChEMBL ID>  (1) 
nan

>  <InChiKey>  (1) 
HMGZRIYJGAGANE-ZETCQYMHSA-N

>  <InChi>  (1) 
InChI=1S/C12H14F4N2/c1-7(17)6-18-3-2-8-4-10(13)9(5-11(8)18)12(14,15)16/h4-5,7H,2-3,6,17H2,1H3/t7-/m0/s1

>  <IUPAC Name>  (1) 
(2S)-1-[5-fluoro-6-(trifluoromethyl)-2,3-dihydroindol-1-yl]propan-2-amine

$$$$
