
     RDKit          3D

 43 44  0  0  0  0  0  0  0  0999 V2000
   -0.6365   -2.9690   -0.2797 C   0  0  0  0  0  0  0  0  0  0  0  0
   -1.3559   -1.6354   -0.2696 C   0  0  1  0  0  0  0  0  0  0  0  0
   -2.6934   -1.7516    0.4309 C   0  0  0  0  0  0  0  0  0  0  0  0
   -3.4509   -0.4880    0.4785 C   0  0  0  0  0  0  0  0  0  0  0  0
   -3.3496    0.4353    1.4981 C   0  0  0  0  0  0  0  0  0  0  0  0
   -4.0965    1.6075    1.4758 C   0  0  0  0  0  0  0  0  0  0  0  0
   -4.9547    1.8689    0.4307 C   0  0  0  0  0  0  0  0  0  0  0  0
   -5.0737    0.9615   -0.6006 C   0  0  0  0  0  0  0  0  0  0  0  0
   -4.3289   -0.1772   -0.5500 C   0  0  0  0  0  0  0  0  0  0  0  0
   -5.6929    3.0338    0.4147 O   0  0  0  0  0  0  0  0  0  0  0  0
   -0.5206   -0.7485    0.4969 N   0  0  0  0  0  0  0  0  0  0  0  0
    0.7961   -0.5846   -0.0641 C   0  0  0  0  0  0  0  0  0  0  0  0
    1.5902    0.3635    0.8153 C   0  0  1  0  0  0  0  0  0  0  0  0
    2.9467    0.4708    0.1783 C   0  0  0  0  0  0  0  0  0  0  0  0
    3.0509    1.2496   -0.9612 C   0  0  0  0  0  0  0  0  0  0  0  0
    4.2980    1.3714   -1.5794 C   0  0  0  0  0  0  0  0  0  0  0  0
    4.4107    2.1588   -2.7342 O   0  0  0  0  0  0  0  0  0  0  0  0
    5.3828    0.7115   -1.0332 C   0  0  0  0  0  0  0  0  0  0  0  0
    5.2903   -0.0674    0.1022 C   0  0  0  0  0  0  0  0  0  0  0  0
    4.0496   -0.1850    0.7122 C   0  0  0  0  0  0  0  0  0  0  0  0
    6.3730   -0.7346    0.6595 O   0  0  0  0  0  0  0  0  0  0  0  0
    0.9842    1.5944    0.8948 O   0  0  0  0  0  0  0  0  0  0  0  0
   -0.0254   -3.1012    0.6571 H   0  0  0  0  0  0  0  0  0  0  0  0
   -1.3637   -3.7930   -0.2596 H   0  0  0  0  0  0  0  0  0  0  0  0
    0.0738   -3.0170   -1.1153 H   0  0  0  0  0  0  0  0  0  0  0  0
   -1.4652   -1.2348   -1.2892 H   0  0  0  0  0  0  0  0  0  0  0  0
   -3.3078   -2.4922   -0.1300 H   0  0  0  0  0  0  0  0  0  0  0  0
   -2.5291   -2.0950    1.4727 H   0  0  0  0  0  0  0  0  0  0  0  0
   -2.6817    0.2220    2.3022 H   0  0  0  0  0  0  0  0  0  0  0  0
   -4.0218    2.3298    2.2666 H   0  0  0  0  0  0  0  0  0  0  0  0
   -5.7500    1.1863   -1.4064 H   0  0  0  0  0  0  0  0  0  0  0  0
   -4.4192   -0.8838   -1.3495 H   0  0  0  0  0  0  0  0  0  0  0  0
   -5.5021    3.7955   -0.2508 H   0  0  0  0  0  0  0  0  0  0  0  0
   -0.5473   -0.8512    1.5080 H   0  0  0  0  0  0  0  0  0  0  0  0
    0.7376   -0.1999   -1.0939 H   0  0  0  0  0  0  0  0  0  0  0  0
    1.2782   -1.5835   -0.0367 H   0  0  0  0  0  0  0  0  0  0  0  0
    1.6559   -0.0807    1.8205 H   0  0  0  0  0  0  0  0  0  0  0  0
    2.2270    1.7740   -1.4087 H   0  0  0  0  0  0  0  0  0  0  0  0
    4.5799    3.1684   -2.6586 H   0  0  0  0  0  0  0  0  0  0  0  0
    6.3656    0.8081   -1.5214 H   0  0  0  0  0  0  0  0  0  0  0  0
    3.9446   -0.7941    1.6119 H   0  0  0  0  0  0  0  0  0  0  0  0
    6.3321   -1.7473    0.8273 H   0  0  0  0  0  0  0  0  0  0  0  0
    1.3997    2.1039    1.6221 H   0  0  0  0  0  0  0  0  0  0  0  0
  1  2  1  0
  2  3  1  0
  3  4  1  0
  4  5  2  0
  5  6  1  0
  6  7  2  0
  7  8  1  0
  8  9  2  0
  7 10  1  0
  2 11  1  0
 11 12  1  0
 12 13  1  0
 13 14  1  0
 14 15  2  0
 15 16  1  0
 16 17  1  0
 16 18  2  0
 18 19  1  0
 19 20  2  0
 19 21  1  0
 13 22  1  0
  9  4  1  0
 20 14  1  0
  1 23  1  0
  1 24  1  0
  1 25  1  0
  2 26  1  6
  3 27  1  0
  3 28  1  0
  5 29  1  0
  6 30  1  0
  8 31  1  0
  9 32  1  0
 10 33  1  0
 11 34  1  0
 12 35  1  0
 12 36  1  0
 13 37  1  1
 15 38  1  0
 17 39  1  0
 18 40  1  0
 20 41  1  0
 21 42  1  0
 22 43  1  0
M  END
>  <Ligand ID>  (1) 
LIG0005207

>  <Ligand>  (1) 
(R,S)-(-)-fenoterol

>  <SMILES>  (1) 
C[C@@H](Cc1ccc(cc1)O)NC[C@@H](c1cc(O)cc(c1)O)O

>  <CID>  (1) 
688467.0

>  <ChEMBL ID>  (1) 
nan

>  <InChiKey>  (1) 
LSLYOANBFKQKPT-GTNSWQLSSA-N

>  <InChi>  (1) 
InChI=1S/C17H21NO4/c1-11(6-12-2-4-14(19)5-3-12)18-10-17(22)13-7-15(20)9-16(21)8-13/h2-5,7-9,11,17-22H,6,10H2,1H3/t11-,17-/m0/s1

>  <IUPAC Name>  (1) 
5-[(1R)-1-hydroxy-2-[[(2S)-1-(4-hydroxyphenyl)propan-2-yl]amino]ethyl]benzene-1,3-diol

$$$$
