
     RDKit          3D

 35 36  0  0  0  0  0  0  0  0999 V2000
    1.4061   -2.8964   -0.0426 O   0  0  0  0  0  0  0  0  0  0  0  0
    0.9677   -1.7440    0.6087 C   0  0  2  0  0  0  0  0  0  0  0  0
   -0.5563   -1.8446    0.7407 C   0  0  2  0  0  0  0  0  0  0  0  0
   -1.0115   -3.1412    0.5230 O   0  0  0  0  0  0  0  0  0  0  0  0
   -0.9879   -0.9235   -0.3605 C   0  0  2  0  0  0  0  0  0  0  0  0
   -0.0907    0.1304   -0.2007 O   0  0  0  0  0  0  0  0  0  0  0  0
    1.1220   -0.5791   -0.3186 C   0  0  1  0  0  0  0  0  0  0  0  0
    2.2265    0.2755   -0.0147 N   0  0  0  0  0  0  0  0  0  0  0  0
    2.0968    1.5584    0.3802 C   0  0  0  0  0  0  0  0  0  0  0  0
    0.8055    2.0954    0.5029 O   0  0  0  0  0  0  0  0  0  0  0  0
    3.2206    2.3147    0.6542 C   0  0  0  0  0  0  0  0  0  0  0  0
    4.4896    1.7868    0.5335 C   0  0  0  0  0  0  0  0  0  0  0  0
    5.5377    2.4359    0.7716 O   0  0  0  0  0  0  0  0  0  0  0  0
    4.5794    0.4948    0.1345 N   0  0  0  0  0  0  0  0  0  0  0  0
    3.4690   -0.2243   -0.1275 C   0  0  0  0  0  0  0  0  0  0  0  0
    3.6236   -1.4253   -0.4960 O   0  0  0  0  0  0  0  0  0  0  0  0
   -2.4219   -0.4688   -0.2272 C   0  0  0  0  0  0  0  0  0  0  0  0
   -2.6412    0.4884   -1.2247 O   0  0  0  0  0  0  0  0  0  0  0  0
   -4.2207    1.0787   -1.1824 P   0  0  0  0  0  0  0  0  0  0  0  0
   -4.8850    1.0675   -2.5387 O   0  0  0  0  0  0  0  0  0  0  0  0
   -5.1683    0.0998   -0.1642 O   0  0  0  0  0  0  0  0  0  0  0  0
   -4.1682    2.6789   -0.6556 O   0  0  0  0  0  0  0  0  0  0  0  0
    0.8443   -3.0077   -0.8567 H   0  0  0  0  0  0  0  0  0  0  0  0
    1.3703   -1.6230    1.6101 H   0  0  0  0  0  0  0  0  0  0  0  0
   -0.8860   -1.5203    1.7302 H   0  0  0  0  0  0  0  0  0  0  0  0
   -1.8583   -3.1784    0.0082 H   0  0  0  0  0  0  0  0  0  0  0  0
   -0.7736   -1.4063   -1.3114 H   0  0  0  0  0  0  0  0  0  0  0  0
    1.1736   -0.9312   -1.3727 H   0  0  0  0  0  0  0  0  0  0  0  0
    0.3996    2.5483   -0.3139 H   0  0  0  0  0  0  0  0  0  0  0  0
    3.1323    3.3478    0.9727 H   0  0  0  0  0  0  0  0  0  0  0  0
    5.5249    0.0434    0.0265 H   0  0  0  0  0  0  0  0  0  0  0  0
   -2.5894    0.0037    0.7561 H   0  0  0  0  0  0  0  0  0  0  0  0
   -3.0984   -1.3364   -0.3139 H   0  0  0  0  0  0  0  0  0  0  0  0
   -5.5634    0.7152    0.5161 H   0  0  0  0  0  0  0  0  0  0  0  0
   -5.0689    3.0870   -0.5900 H   0  0  0  0  0  0  0  0  0  0  0  0
  1  2  1  0
  2  3  1  0
  3  4  1  0
  3  5  1  0
  5  6  1  0
  6  7  1  0
  7  8  1  0
  8  9  1  0
  9 10  1  0
  9 11  2  0
 11 12  1  0
 12 13  2  0
 12 14  1  0
 14 15  1  0
 15 16  2  0
  5 17  1  0
 17 18  1  0
 18 19  1  0
 19 20  2  0
 19 21  1  0
 19 22  1  0
  7  2  1  0
 15  8  1  0
  1 23  1  0
  2 24  1  1
  3 25  1  1
  4 26  1  0
  5 27  1  6
  7 28  1  6
 10 29  1  0
 11 30  1  0
 14 31  1  0
 17 32  1  0
 17 33  1  0
 21 34  1  0
 22 35  1  0
M  END
>  <Ligand ID>  (1) 
LIG0002458

>  <Ligand>  (1) 
6-hydroxy-UMP

>  <SMILES>  (1) 
O[C@@H]1[C@H](O)[C@H](O[C@H]1n1c(O)cc(=O)[nH]c1=O)COP(=O)(O)O

>  <CID>  (1) 
161647.0

>  <ChEMBL ID>  (1) 
nan

>  <InChiKey>  (1) 
UDOBICLZEKUKCV-YXZULKJRSA-N

>  <InChi>  (1) 
InChI=1S/C9H13N2O10P/c12-4-1-5(13)11(9(16)10-4)8-7(15)6(14)3(21-8)2-20-22(17,18)19/h1,3,6-8,13-15H,2H2,(H,10,12,16)(H2,17,18,19)/t3-,6-,7-,8-/m1/s1

>  <IUPAC Name>  (1) 
[(2R,3S,4R,5R)-3,4-dihydroxy-5-(6-hydroxy-2,4-dioxopyrimidin-1-yl)oxolan-2-yl]methyl dihydrogen phosphate

$$$$
