
     RDKit          3D

 33 35  0  0  0  0  0  0  0  0999 V2000
    3.5225    2.4761    1.5911 C   0  0  0  0  0  0  0  0  0  0  0  0
    3.6814    1.3732    0.8785 C   0  0  0  0  0  0  0  0  0  0  0  0
    2.5452    0.6371    0.3365 C   0  0  0  0  0  0  0  0  0  0  0  0
    1.2344    1.0234    0.5189 C   0  0  0  0  0  0  0  0  0  0  0  0
    0.2079    0.2817   -0.0210 C   0  0  0  0  0  0  0  0  0  0  0  0
   -1.2614    0.4991    0.0470 C   0  0  2  0  0  0  0  0  0  0  0  0
   -1.7919    0.4393    1.4387 C   0  0  0  0  0  0  0  0  0  0  0  0
   -3.2303    0.3142    1.3915 N   0  0  0  0  0  0  0  0  0  0  0  0
   -3.7948    0.5102    0.0769 C   0  0  0  0  0  0  0  0  0  0  0  0
   -3.3034   -0.6244   -0.8227 C   0  0  0  0  0  0  0  0  0  0  0  0
   -1.8581   -0.5870   -0.7066 N   0  0  0  0  0  0  0  0  0  0  0  0
   -0.8477   -1.4328   -1.2024 C   0  0  0  0  0  0  0  0  0  0  0  0
   -1.0045   -2.4901   -1.9027 O   0  0  0  0  0  0  0  0  0  0  0  0
    0.4185   -0.8643   -0.7590 C   0  0  0  0  0  0  0  0  0  0  0  0
    1.7236   -1.2561   -0.9452 C   0  0  0  0  0  0  0  0  0  0  0  0
    2.7514   -0.5126   -0.4040 C   0  0  0  0  0  0  0  0  0  0  0  0
    2.0198   -2.4733   -1.7250 C   0  0  0  0  0  0  0  0  0  0  0  0
    1.4362   -3.5911   -1.1463 F   0  0  0  0  0  0  0  0  0  0  0  0
    3.3750   -2.6943   -1.7509 F   0  0  0  0  0  0  0  0  0  0  0  0
    1.5443   -2.3196   -3.0248 F   0  0  0  0  0  0  0  0  0  0  0  0
    2.5794    2.9220    1.8322 H   0  0  0  0  0  0  0  0  0  0  0  0
    4.4034    2.9967    1.9786 H   0  0  0  0  0  0  0  0  0  0  0  0
    4.6706    1.0063    0.6916 H   0  0  0  0  0  0  0  0  0  0  0  0
    0.9998    1.9030    1.0812 H   0  0  0  0  0  0  0  0  0  0  0  0
   -1.5043    1.4960   -0.3881 H   0  0  0  0  0  0  0  0  0  0  0  0
   -1.4793    1.3455    2.0021 H   0  0  0  0  0  0  0  0  0  0  0  0
   -1.3446   -0.4377    1.9933 H   0  0  0  0  0  0  0  0  0  0  0  0
   -3.6345    1.0853    1.9886 H   0  0  0  0  0  0  0  0  0  0  0  0
   -3.5350    1.4805   -0.3895 H   0  0  0  0  0  0  0  0  0  0  0  0
   -4.9022    0.4624    0.1479 H   0  0  0  0  0  0  0  0  0  0  0  0
   -3.7358   -1.5574   -0.3819 H   0  0  0  0  0  0  0  0  0  0  0  0
   -3.6646   -0.5449   -1.8443 H   0  0  0  0  0  0  0  0  0  0  0  0
    3.7790   -0.8666   -0.5803 H   0  0  0  0  0  0  0  0  0  0  0  0
  1  2  2  0
  2  3  1  0
  3  4  2  0
  4  5  1  0
  5  6  1  0
  6  7  1  0
  7  8  1  0
  8  9  1  0
  9 10  1  0
 10 11  1  0
 11 12  1  0
 12 13  2  0
 12 14  1  0
 14 15  1  0
 15 16  2  0
 15 17  1  0
 17 18  1  0
 17 19  1  0
 17 20  1  0
 16  3  1  0
 14  5  2  0
 11  6  1  0
  1 21  1  0
  1 22  1  0
  2 23  1  0
  4 24  1  0
  6 25  1  6
  7 26  1  0
  7 27  1  0
  8 28  1  0
  9 29  1  0
  9 30  1  0
 10 31  1  0
 10 32  1  0
 16 33  1  0
M  END
>  <Ligand ID>  (1) 
LIG0002334

>  <Ligand>  (1) 
CHEMBL222566

>  <SMILES>  (1) 
C=Cc1cc2[C@@H]3CNCCN3C(=O)c2c(c1)C(F)(F)F

>  <CID>  (1) 
11427139.0

>  <ChEMBL ID>  (1) 
nan

>  <InChiKey>  (1) 
CADIZNXZPSVKJP-NSHDSACASA-N

>  <InChi>  (1) 
InChI=1S/C14H13F3N2O/c1-2-8-5-9-11-7-18-3-4-19(11)13(20)12(9)10(6-8)14(15,16)17/h2,5-6,11,18H,1,3-4,7H2/t11-/m0/s1

>  <IUPAC Name>  (1) 
(10bR)-9-ethenyl-7-(trifluoromethyl)-2,3,4,10b-tetrahydro-1H-pyrazino[1,2-b]isoindol-6-one

$$$$
