
     RDKit          3D

 43 46  0  0  0  0  0  0  0  0999 V2000
    6.2758    3.3273   -0.2193 F   0  0  0  0  0  0  0  0  0  0  0  0
    5.1619    2.5649   -0.1950 C   0  0  0  0  0  0  0  0  0  0  0  0
    5.0256    1.5894    0.7567 C   0  0  0  0  0  0  0  0  0  0  0  0
    3.8580    0.8298    0.7395 C   0  0  0  0  0  0  0  0  0  0  0  0
    2.8705    1.0472   -0.1999 C   0  0  0  0  0  0  0  0  0  0  0  0
    3.0238    2.0385   -1.1565 C   0  0  0  0  0  0  0  0  0  0  0  0
    4.1877    2.7934   -1.1368 C   0  0  0  0  0  0  0  0  0  0  0  0
    2.0471    2.2496   -2.0813 F   0  0  0  0  0  0  0  0  0  0  0  0
    1.7089    0.2241   -0.1444 N   0  0  0  0  0  0  0  0  0  0  0  0
    0.4483    0.6483   -0.1272 N   0  0  0  0  0  0  0  0  0  0  0  0
   -0.4092   -0.3986   -0.0720 C   0  0  0  0  0  0  0  0  0  0  0  0
    0.4037   -1.5143   -0.0555 C   0  0  0  0  0  0  0  0  0  0  0  0
    1.7261   -1.1227   -0.1009 C   0  0  0  0  0  0  0  0  0  0  0  0
    2.6134   -2.2878   -0.0846 C   0  0  1  0  0  0  0  0  0  0  0  0
    2.5435   -3.2586    1.1019 C   0  0  0  0  0  0  0  0  0  0  0  0
    1.7065   -3.4800   -0.1597 C   0  0  1  0  0  0  0  0  0  0  0  0
    0.2966   -2.9966   -0.0045 C   0  0  0  0  0  0  0  0  0  0  0  0
   -1.8663   -0.3700   -0.0371 C   0  0  0  0  0  0  0  0  0  0  0  0
   -2.5068   -1.4691    0.0145 O   0  0  0  0  0  0  0  0  0  0  0  0
   -2.5178    0.8852   -0.0620 N   0  0  0  0  0  0  0  0  0  0  0  0
   -3.9815    0.8988   -0.0264 C   0  0  0  0  0  0  0  0  0  0  0  0
   -4.4656    2.3213   -0.0609 C   0  0  0  0  0  0  0  0  0  0  0  0
   -4.5393    0.1348   -1.1862 C   0  0  0  0  0  0  0  0  0  0  0  0
   -4.4720    0.3112    1.2951 C   0  0  0  0  0  0  0  0  0  0  0  0
    5.7739    1.3825    1.5138 H   0  0  0  0  0  0  0  0  0  0  0  0
    3.7616    0.0525    1.5066 H   0  0  0  0  0  0  0  0  0  0  0  0
    4.3005    3.5637   -1.8847 H   0  0  0  0  0  0  0  0  0  0  0  0
    3.5688   -2.2637   -0.6551 H   0  0  0  0  0  0  0  0  0  0  0  0
    3.4001   -3.9418    1.2127 H   0  0  0  0  0  0  0  0  0  0  0  0
    2.0513   -2.9380    2.0325 H   0  0  0  0  0  0  0  0  0  0  0  0
    1.9620   -4.3323   -0.8221 H   0  0  0  0  0  0  0  0  0  0  0  0
   -0.3073   -3.4114   -0.8460 H   0  0  0  0  0  0  0  0  0  0  0  0
   -0.1301   -3.2780    0.9795 H   0  0  0  0  0  0  0  0  0  0  0  0
   -1.9670    1.7754   -0.1046 H   0  0  0  0  0  0  0  0  0  0  0  0
   -5.4516    2.4496    0.3962 H   0  0  0  0  0  0  0  0  0  0  0  0
   -4.5179    2.7209   -1.0945 H   0  0  0  0  0  0  0  0  0  0  0  0
   -3.7727    2.9808    0.5209 H   0  0  0  0  0  0  0  0  0  0  0  0
   -3.7524   -0.1042   -1.9313 H   0  0  0  0  0  0  0  0  0  0  0  0
   -5.3464    0.6672   -1.7234 H   0  0  0  0  0  0  0  0  0  0  0  0
   -4.9247   -0.8304   -0.7984 H   0  0  0  0  0  0  0  0  0  0  0  0
   -3.8217    0.6895    2.1308 H   0  0  0  0  0  0  0  0  0  0  0  0
   -5.5214    0.6358    1.4529 H   0  0  0  0  0  0  0  0  0  0  0  0
   -4.4438   -0.7841    1.3166 H   0  0  0  0  0  0  0  0  0  0  0  0
  1  2  1  0
  2  3  2  0
  3  4  1  0
  4  5  2  0
  5  6  1  0
  6  7  2  0
  6  8  1  0
  5  9  1  0
  9 10  1  0
 10 11  2  0
 11 12  1  0
 12 13  2  0
 13 14  1  0
 14 15  1  0
 15 16  1  0
 16 17  1  0
 11 18  1  0
 18 19  2  0
 18 20  1  0
 20 21  1  0
 21 22  1  0
 21 23  1  0
 21 24  1  0
  7  2  1  0
 13  9  1  0
 16 14  1  0
 17 12  1  0
  3 25  1  0
  4 26  1  0
  7 27  1  0
 14 28  1  6
 15 29  1  0
 15 30  1  0
 16 31  1  6
 17 32  1  0
 17 33  1  0
 20 34  1  0
 22 35  1  0
 22 36  1  0
 22 37  1  0
 23 38  1  0
 23 39  1  0
 23 40  1  0
 24 41  1  0
 24 42  1  0
 24 43  1  0
M  END
>  <Ligand ID>  (1) 
LIG0001479

>  <Ligand>  (1) 
CHEMBL3354962

>  <SMILES>  (1) 
Fc1ccc(c(c1)F)n1nc(c2c1[C@H]1C[C@H]1C2)C(=O)NC(C)(C)C

>  <CID>  (1) 
68182311.0

>  <ChEMBL ID>  (1) 
nan

>  <InChiKey>  (1) 
QZYTVFOJAQEKOY-ONGXEEELSA-N

>  <InChi>  (1) 
InChI=1S/C18H19F2N3O/c1-18(2,3)21-17(24)15-12-7-9-6-11(9)16(12)23(22-15)14-5-4-10(19)8-13(14)20/h4-5,8-9,11H,6-7H2,1-3H3,(H,21,24)/t9-,11-/m0/s1

>  <IUPAC Name>  (1) 
(2S,4S)-N-tert-butyl-9-(2,4-difluorophenyl)-8,9-diazatricyclo[4.3.0.02,4]nona-1(6),7-diene-7-carboxamide

$$$$
